REMARK  Name = ../refined-set-2016/2xeg/2xeg_pocket.pdb
REMARK  382 active torsions:
REMARK  status: ('A' for Active; 'I' for Inactive)
REMARK    1  A    between atoms: _1  and  _3
REMARK    2  A    between atoms: _3  and  _4
REMARK    3  A    between atoms: _7  and  _9
REMARK    4  A    between atoms: _9  and  _10
REMARK    5  A    between atoms: _9  and  _12
REMARK    6  A    between atoms: _12  and  _13
REMARK    7  A    between atoms: _19  and  _21
REMARK    8  A    between atoms: _21  and  _22
REMARK    9  A    between atoms: _21  and  _24
REMARK   10  A    between atoms: _24  and  _25
REMARK   11  A    between atoms: _30  and  _31
REMARK   12  A    between atoms: _33  and  _35
REMARK   13  A    between atoms: _35  and  _36
REMARK   14  A    between atoms: _38  and  _40
REMARK   15  A    between atoms: _40  and  _41
REMARK   16  A    between atoms: _40  and  _43
REMARK   17  A    between atoms: _43  and  _44
REMARK   18  A    between atoms: _44  and  _45
REMARK   19  A    between atoms: _45  and  _46
REMARK   20  A    between atoms: _46  and  _47
REMARK   21  A    between atoms: _51  and  _53
REMARK   22  A    between atoms: _53  and  _54
REMARK   23  A    between atoms: _53  and  _56
REMARK   24  A    between atoms: _59  and  _61
REMARK   25  A    between atoms: _61  and  _62
REMARK   26  A    between atoms: _61  and  _64
REMARK   27  A    between atoms: _64  and  _65
REMARK   28  A    between atoms: _71  and  _73
REMARK   29  A    between atoms: _73  and  _74
REMARK   30  A    between atoms: _73  and  _76
REMARK   31  A    between atoms: _76  and  _77
REMARK   32  A    between atoms: _77  and  _78
REMARK   33  A    between atoms: _78  and  _79
REMARK   34  A    between atoms: _88  and  _90
REMARK   35  A    between atoms: _90  and  _91
REMARK   36  A    between atoms: _93  and  _95
REMARK   37  A    between atoms: _95  and  _96
REMARK   38  A    between atoms: _95  and  _98
REMARK   39  A    between atoms: _98  and  _99
REMARK   40  A    between atoms: _99  and  _100
REMARK   41  A    between atoms: _100  and  _101
REMARK   42  A    between atoms: _101  and  _102
REMARK   43  A    between atoms: _106  and  _108
REMARK   44  A    between atoms: _108  and  _109
REMARK   45  A    between atoms: _108  and  _111
REMARK   46  A    between atoms: _111  and  _112
REMARK   47  A    between atoms: _115  and  _117
REMARK   48  A    between atoms: _117  and  _118
REMARK   49  A    between atoms: _117  and  _120
REMARK   50  A    between atoms: _120  and  _121
REMARK   51  A    between atoms: _126  and  _127
REMARK   52  A    between atoms: _129  and  _131
REMARK   53  A    between atoms: _131  and  _132
REMARK   54  A    between atoms: _131  and  _134
REMARK   55  A    between atoms: _134  and  _135
REMARK   56  A    between atoms: _135  and  _136
REMARK   57  A    between atoms: _141  and  _143
REMARK   58  A    between atoms: _143  and  _144
REMARK   59  A    between atoms: _143  and  _146
REMARK   60  A    between atoms: _146  and  _147
REMARK   61  A    between atoms: _147  and  _148
REMARK   62  A    between atoms: _148  and  _149
REMARK   63  A    between atoms: _158  and  _160
REMARK   64  A    between atoms: _160  and  _161
REMARK   65  A    between atoms: _163  and  _165
REMARK   66  A    between atoms: _165  and  _166
REMARK   67  A    between atoms: _165  and  _168
REMARK   68  A    between atoms: _168  and  _169
REMARK   69  A    between atoms: _174  and  _176
REMARK   70  A    between atoms: _176  and  _177
REMARK   71  A    between atoms: _176  and  _179
REMARK   72  A    between atoms: _179  and  _180
REMARK   73  A    between atoms: _183  and  _185
REMARK   74  A    between atoms: _185  and  _186
REMARK   75  A    between atoms: _185  and  _188
REMARK   76  A    between atoms: _188  and  _189
REMARK   77  A    between atoms: _192  and  _194
REMARK   78  A    between atoms: _194  and  _195
REMARK   79  A    between atoms: _194  and  _197
REMARK   80  A    between atoms: _197  and  _198
REMARK   81  A    between atoms: _203  and  _205
REMARK   82  A    between atoms: _205  and  _206
REMARK   83  A    between atoms: _205  and  _208
REMARK   84  A    between atoms: _208  and  _209
REMARK   85  A    between atoms: _212  and  _214
REMARK   86  A    between atoms: _214  and  _215
REMARK   87  A    between atoms: _214  and  _217
REMARK   88  A    between atoms: _217  and  _218
REMARK   89  A    between atoms: _223  and  _225
REMARK   90  A    between atoms: _225  and  _226
REMARK   91  A    between atoms: _228  and  _230
REMARK   92  A    between atoms: _230  and  _231
REMARK   93  A    between atoms: _230  and  _233
REMARK   94  A    between atoms: _233  and  _234
REMARK   95  A    between atoms: _238  and  ZN_939
REMARK   96  A    between atoms: _239  and  _241
REMARK   97  A    between atoms: _241  and  _242
REMARK   98  A    between atoms: _241  and  _244
REMARK   99  A    between atoms: _244  and  _245
REMARK  100  A    between atoms: _248  and  _250
REMARK  101  A    between atoms: _250  and  _251
REMARK  102  A    between atoms: _250  and  _253
REMARK  103  A    between atoms: _253  and  _254
REMARK  104  A    between atoms: _264  and  _266
REMARK  105  A    between atoms: _266  and  _267
REMARK  106  A    between atoms: _266  and  _269
REMARK  107  A    between atoms: _269  and  _270
REMARK  108  A    between atoms: _273  and  _275
REMARK  109  A    between atoms: _275  and  _276
REMARK  110  A    between atoms: _275  and  _278
REMARK  111  A    between atoms: _278  and  _279
REMARK  112  A    between atoms: _279  and  _280
REMARK  113  A    between atoms: _279  and  _281
REMARK  114  A    between atoms: _280  and  ZN_939
REMARK  115  A    between atoms: _281  and  ZN_938
REMARK  116  A    between atoms: _283  and  _284
REMARK  117  A    between atoms: _289  and  _291
REMARK  118  A    between atoms: _291  and  _292
REMARK  119  A    between atoms: _295  and  _297
REMARK  120  A    between atoms: _297  and  _298
REMARK  121  A    between atoms: _297  and  _300
REMARK  122  A    between atoms: _300  and  _301
REMARK  123  A    between atoms: _301  and  _302
REMARK  124  A    between atoms: _305  and  _307
REMARK  125  A    between atoms: _307  and  _308
REMARK  126  A    between atoms: _307  and  _310
REMARK  127  A    between atoms: _310  and  _311
REMARK  128  A    between atoms: _311  and  _312
REMARK  129  A    between atoms: _312  and  _314
REMARK  130  A    between atoms: _314  and  ZN_938
REMARK  131  A    between atoms: _315  and  _317
REMARK  132  A    between atoms: _317  and  _318
REMARK  133  A    between atoms: _317  and  _320
REMARK  134  A    between atoms: _320  and  _321
REMARK  135  A    between atoms: _327  and  _329
REMARK  136  A    between atoms: _329  and  _330
REMARK  137  A    between atoms: _332  and  _334
REMARK  138  A    between atoms: _334  and  _335
REMARK  139  A    between atoms: _334  and  _337
REMARK  140  A    between atoms: _337  and  _338
REMARK  141  A    between atoms: _341  and  _343
REMARK  142  A    between atoms: _343  and  _344
REMARK  143  A    between atoms: _343  and  _346
REMARK  144  A    between atoms: _346  and  _347
REMARK  145  A    between atoms: _350  and  _352
REMARK  146  A    between atoms: _352  and  _353
REMARK  147  A    between atoms: _352  and  _355
REMARK  148  A    between atoms: _355  and  _356
REMARK  149  A    between atoms: _361  and  _363
REMARK  150  A    between atoms: _363  and  _364
REMARK  151  A    between atoms: _363  and  _366
REMARK  152  A    between atoms: _366  and  _367
REMARK  153  A    between atoms: _367  and  _369
REMARK  154  A    between atoms: _369  and  ZN_939
REMARK  155  A    between atoms: _370  and  _372
REMARK  156  A    between atoms: _372  and  _373
REMARK  157  A    between atoms: _372  and  _375
REMARK  158  A    between atoms: _375  and  _376
REMARK  159  A    between atoms: _378  and  _380
REMARK  160  A    between atoms: _380  and  _381
REMARK  161  A    between atoms: _380  and  _383
REMARK  162  A    between atoms: _383  and  _384
REMARK  163  A    between atoms: _386  and  _388
REMARK  164  A    between atoms: _388  and  _389
REMARK  165  A    between atoms: _388  and  _391
REMARK  166  A    between atoms: _391  and  _392
REMARK  167  A    between atoms: _395  and  _397
REMARK  168  A    between atoms: _397  and  _398
REMARK  169  A    between atoms: _397  and  _400
REMARK  170  A    between atoms: _400  and  _401
REMARK  171  A    between atoms: _401  and  _402
REMARK  172  A    between atoms: _405  and  _407
REMARK  173  A    between atoms: _407  and  _408
REMARK  174  A    between atoms: _407  and  _410
REMARK  175  A    between atoms: _410  and  _411
REMARK  176  A    between atoms: _416  and  _417
REMARK  177  A    between atoms: _419  and  _421
REMARK  178  A    between atoms: _421  and  _422
REMARK  179  A    between atoms: _421  and  _424
REMARK  180  A    between atoms: _424  and  _425
REMARK  181  A    between atoms: _428  and  _430
REMARK  182  A    between atoms: _430  and  _431
REMARK  183  A    between atoms: _430  and  _433
REMARK  184  A    between atoms: _433  and  _434
REMARK  185  A    between atoms: _437  and  _439
REMARK  186  A    between atoms: _439  and  _440
REMARK  187  A    between atoms: _439  and  _442
REMARK  188  A    between atoms: _442  and  _443
REMARK  189  A    between atoms: _443  and  _444
REMARK  190  A    between atoms: _444  and  _445
REMARK  191  A    between atoms: _454  and  _456
REMARK  192  A    between atoms: _456  and  _457
REMARK  193  A    between atoms: _456  and  _459
REMARK  194  A    between atoms: _462  and  _464
REMARK  195  A    between atoms: _464  and  _465
REMARK  196  A    between atoms: _464  and  _467
REMARK  197  A    between atoms: _467  and  _468
REMARK  198  A    between atoms: _471  and  _473
REMARK  199  A    between atoms: _473  and  _474
REMARK  200  A    between atoms: _473  and  _476
REMARK  201  A    between atoms: _476  and  _477
REMARK  202  A    between atoms: _487  and  _489
REMARK  203  A    between atoms: _489  and  _490
REMARK  204  A    between atoms: _489  and  _492
REMARK  205  A    between atoms: _492  and  _493
REMARK  206  A    between atoms: _493  and  _494
REMARK  207  A    between atoms: _494  and  _495
REMARK  208  A    between atoms: _495  and  _496
REMARK  209  A    between atoms: _500  and  _502
REMARK  210  A    between atoms: _502  and  _503
REMARK  211  A    between atoms: _502  and  _505
REMARK  212  A    between atoms: _505  and  _506
REMARK  213  A    between atoms: _509  and  _510
REMARK  214  A    between atoms: _516  and  _517
REMARK  215  A    between atoms: _522  and  _524
REMARK  216  A    between atoms: _524  and  _525
REMARK  217  A    between atoms: _524  and  _527
REMARK  218  A    between atoms: _527  and  _528
REMARK  219  A    between atoms: _528  and  _529
REMARK  220  A    between atoms: _529  and  _530
REMARK  221  A    between atoms: _539  and  _541
REMARK  222  A    between atoms: _541  and  _542
REMARK  223  A    between atoms: _541  and  _544
REMARK  224  A    between atoms: _544  and  _545
REMARK  225  A    between atoms: _548  and  _550
REMARK  226  A    between atoms: _550  and  _551
REMARK  227  A    between atoms: _550  and  _553
REMARK  228  A    between atoms: _553  and  _554
REMARK  229  A    between atoms: _556  and  _558
REMARK  230  A    between atoms: _558  and  _559
REMARK  231  A    between atoms: _558  and  _561
REMARK  232  A    between atoms: _561  and  _562
REMARK  233  A    between atoms: _562  and  _563
REMARK  234  A    between atoms: _563  and  _564
REMARK  235  A    between atoms: _564  and  _565
REMARK  236  A    between atoms: _569  and  _571
REMARK  237  A    between atoms: _571  and  _572
REMARK  238  A    between atoms: _571  and  _574
REMARK  239  A    between atoms: _574  and  _575
REMARK  240  A    between atoms: _578  and  _580
REMARK  241  A    between atoms: _580  and  _581
REMARK  242  A    between atoms: _583  and  _585
REMARK  243  A    between atoms: _585  and  _586
REMARK  244  A    between atoms: _585  and  _588
REMARK  245  A    between atoms: _588  and  _589
REMARK  246  A    between atoms: _591  and  _593
REMARK  247  A    between atoms: _593  and  _594
REMARK  248  A    between atoms: _596  and  _598
REMARK  249  A    between atoms: _598  and  _599
REMARK  250  A    between atoms: _598  and  _601
REMARK  251  A    between atoms: _601  and  _602
REMARK  252  A    between atoms: _607  and  _609
REMARK  253  A    between atoms: _609  and  _610
REMARK  254  A    between atoms: _609  and  _612
REMARK  255  A    between atoms: _612  and  _613
REMARK  256  A    between atoms: _616  and  _618
REMARK  257  A    between atoms: _618  and  _619
REMARK  258  A    between atoms: _618  and  _621
REMARK  259  A    between atoms: _621  and  _622
REMARK  260  A    between atoms: _628  and  _630
REMARK  261  A    between atoms: _630  and  _631
REMARK  262  A    between atoms: _630  and  _633
REMARK  263  A    between atoms: _633  and  _634
REMARK  264  A    between atoms: _634  and  _635
REMARK  265  A    between atoms: _638  and  _640
REMARK  266  A    between atoms: _640  and  _641
REMARK  267  A    between atoms: _640  and  _643
REMARK  268  A    between atoms: _643  and  _644
REMARK  269  A    between atoms: _644  and  _645
REMARK  270  A    between atoms: _645  and  _646
REMARK  271  A    between atoms: _655  and  _657
REMARK  272  A    between atoms: _657  and  _658
REMARK  273  A    between atoms: _657  and  _660
REMARK  274  A    between atoms: _660  and  _661
REMARK  275  A    between atoms: _661  and  _662
REMARK  276  A    between atoms: _662  and  _663
REMARK  277  A    between atoms: _672  and  _674
REMARK  278  A    between atoms: _674  and  _675
REMARK  279  A    between atoms: _674  and  _677
REMARK  280  A    between atoms: _677  and  _678
REMARK  281  A    between atoms: _683  and  _684
REMARK  282  A    between atoms: _686  and  _688
REMARK  283  A    between atoms: _688  and  _689
REMARK  284  A    between atoms: _688  and  _691
REMARK  285  A    between atoms: _691  and  _692
REMARK  286  A    between atoms: _695  and  _697
REMARK  287  A    between atoms: _697  and  _698
REMARK  288  A    between atoms: _697  and  _700
REMARK  289  A    between atoms: _700  and  _701
REMARK  290  A    between atoms: _701  and  _702
REMARK  291  A    between atoms: _702  and  _703
REMARK  292  A    between atoms: _703  and  _704
REMARK  293  A    between atoms: _708  and  _710
REMARK  294  A    between atoms: _710  and  _711
REMARK  295  A    between atoms: _710  and  _713
REMARK  296  A    between atoms: _713  and  _714
REMARK  297  A    between atoms: _719  and  _721
REMARK  298  A    between atoms: _721  and  _722
REMARK  299  A    between atoms: _721  and  _724
REMARK  300  A    between atoms: _724  and  _725
REMARK  301  A    between atoms: _735  and  _737
REMARK  302  A    between atoms: _737  and  _738
REMARK  303  A    between atoms: _737  and  _740
REMARK  304  A    between atoms: _740  and  _741
REMARK  305  A    between atoms: _741  and  _742
REMARK  306  A    between atoms: _745  and  _747
REMARK  307  A    between atoms: _747  and  _748
REMARK  308  A    between atoms: _747  and  _750
REMARK  309  A    between atoms: _750  and  _751
REMARK  310  A    between atoms: _754  and  _756
REMARK  311  A    between atoms: _756  and  _757
REMARK  312  A    between atoms: _756  and  _759
REMARK  313  A    between atoms: _759  and  _760
REMARK  314  A    between atoms: _765  and  _767
REMARK  315  A    between atoms: _767  and  _768
REMARK  316  A    between atoms: _767  and  _770
REMARK  317  A    between atoms: _770  and  _771
REMARK  318  A    between atoms: _777  and  _779
REMARK  319  A    between atoms: _779  and  _780
REMARK  320  A    between atoms: _779  and  _782
REMARK  321  A    between atoms: _782  and  _783
REMARK  322  A    between atoms: _785  and  _787
REMARK  323  A    between atoms: _787  and  _788
REMARK  324  A    between atoms: _790  and  _792
REMARK  325  A    between atoms: _792  and  _793
REMARK  326  A    between atoms: _792  and  _795
REMARK  327  A    between atoms: _795  and  _796
REMARK  328  A    between atoms: _801  and  _802
REMARK  329  A    between atoms: _804  and  _806
REMARK  330  A    between atoms: _806  and  _807
REMARK  331  A    between atoms: _806  and  _809
REMARK  332  A    between atoms: _809  and  _810
REMARK  333  A    between atoms: _815  and  _816
REMARK  334  A    between atoms: _818  and  _820
REMARK  335  A    between atoms: _820  and  _821
REMARK  336  A    between atoms: _820  and  _823
REMARK  337  A    between atoms: _823  and  _824
REMARK  338  A    between atoms: _828  and  ZN_938
REMARK  339  A    between atoms: _829  and  _831
REMARK  340  A    between atoms: _831  and  _832
REMARK  341  A    between atoms: _831  and  _834
REMARK  342  A    between atoms: _834  and  _835
REMARK  343  A    between atoms: _835  and  _836
REMARK  344  A    between atoms: _839  and  _841
REMARK  345  A    between atoms: _841  and  _842
REMARK  346  A    between atoms: _841  and  _844
REMARK  347  A    between atoms: _844  and  _845
REMARK  348  A    between atoms: _845  and  _846
REMARK  349  A    between atoms: _846  and  _847
REMARK  350  A    between atoms: _856  and  _858
REMARK  351  A    between atoms: _858  and  _859
REMARK  352  A    between atoms: _858  and  _861
REMARK  353  A    between atoms: _861  and  _862
REMARK  354  A    between atoms: _867  and  _868
REMARK  355  A    between atoms: _870  and  _872
REMARK  356  A    between atoms: _872  and  _873
REMARK  357  A    between atoms: _872  and  _875
REMARK  358  A    between atoms: _875  and  _876
REMARK  359  A    between atoms: _878  and  _880
REMARK  360  A    between atoms: _880  and  _881
REMARK  361  A    between atoms: _880  and  _883
REMARK  362  A    between atoms: _883  and  _884
REMARK  363  A    between atoms: _889  and  _891
REMARK  364  A    between atoms: _891  and  _892
REMARK  365  A    between atoms: _891  and  _894
REMARK  366  A    between atoms: _894  and  _895
REMARK  367  A    between atoms: _900  and  _902
REMARK  368  A    between atoms: _902  and  _903
REMARK  369  A    between atoms: _902  and  _905
REMARK  370  A    between atoms: _905  and  _906
REMARK  371  A    between atoms: _906  and  _907
REMARK  372  A    between atoms: _907  and  _908
REMARK  373  A    between atoms: _908  and  _909
REMARK  374  A    between atoms: _913  and  _915
REMARK  375  A    between atoms: _915  and  _916
REMARK  376  A    between atoms: _915  and  _918
REMARK  377  A    between atoms: _918  and  _919
REMARK  378  A    between atoms: _924  and  _925
REMARK  379  A    between atoms: _927  and  _929
REMARK  380  A    between atoms: _929  and  _930
REMARK  381  A    between atoms: _933  and  _935
REMARK  382  A    between atoms: _935  and  _936
REMARK                            x       y       z     vdW  Elec       q    Type
REMARK                         _______ _______ _______ _____ _____    ______ ____
ROOT
ATOM      1  CA  PHE A   2       8.923  41.518  30.835  0.00  0.00    +0.141 C 
ENDROOT
BRANCH   1   4
ATOM      2  C   ALA A   1      10.942  40.794  32.184  0.00  0.00    +0.238 C 
ATOM      3  O   ALA A   1      11.487  41.912  32.274  0.00  0.00    -0.274 OA
ATOM      4  N   PHE A   2       9.777  40.555  31.555  0.00  0.00    -0.298 N 
ATOM      5  H   PHE A   2       9.438  39.572  31.579  0.00  0.00    +0.150 HD
BRANCH   2   6
ATOM      6  CA  ALA A   1      11.515  39.560  32.890  0.00  0.00    +0.145 C 
ATOM      7  CB  ALA A   1      11.261  39.625  34.408  0.00  0.00    +0.028 C 
BRANCH   6   8
ATOM      8  N   ALA A   1      12.945  39.428  32.613  0.00  0.00    -0.238 NA
ATOM      9  H   ALA A   1      13.645  39.480  33.380  0.00  0.00    +0.142 HD
ENDBRANCH   6   8
ENDBRANCH   2   6
ENDBRANCH   1   4
BRANCH   1  10
ATOM     10  C   PHE A   2       9.344  41.736  29.389  0.00  0.00    +0.227 C 
ATOM     11  O   PHE A   2       8.734  42.554  28.690  0.00  0.00    -0.286 OA
ENDBRANCH   1  10
BRANCH   1  12
ATOM     12  CB  PHE A   2       8.667  42.829  31.568  0.00  0.00    +0.054 C 
BRANCH  12  13
ATOM     13  CG  PHE A   2       8.033  42.626  32.914  0.00  0.00    -0.020 A 
ATOM     14  CD2 PHE A   2       8.814  42.593  34.093  0.00  0.00    -0.004 A 
ATOM     15  CE2 PHE A   2       8.168  42.419  35.354  0.00  0.00    -0.000 A 
ATOM     16  CZ  PHE A   2       6.732  42.286  35.396  0.00  0.00    -0.000 A 
ATOM     17  CE1 PHE A   2       6.015  42.322  34.201  0.00  0.00    -0.000 A 
ATOM     18  CD1 PHE A   2       6.631  42.460  32.996  0.00  0.00    -0.004 A 
ENDBRANCH  12  13
ENDBRANCH   1  12
TORSDOF 6
REMARK  Name = ../refined-set-2016/2xeg/2xeg_pocket.pdb
REMARK  382 active torsions:
REMARK  status: ('A' for Active; 'I' for Inactive)
REMARK    1  A    between atoms: _1  and  _3
REMARK    2  A    between atoms: _3  and  _4
REMARK    3  A    between atoms: _7  and  _9
REMARK    4  A    between atoms: _9  and  _10
REMARK    5  A    between atoms: _9  and  _12
REMARK    6  A    between atoms: _12  and  _13
REMARK    7  A    between atoms: _19  and  _21
REMARK    8  A    between atoms: _21  and  _22
REMARK    9  A    between atoms: _21  and  _24
REMARK   10  A    between atoms: _24  and  _25
REMARK   11  A    between atoms: _30  and  _31
REMARK   12  A    between atoms: _33  and  _35
REMARK   13  A    between atoms: _35  and  _36
REMARK   14  A    between atoms: _38  and  _40
REMARK   15  A    between atoms: _40  and  _41
REMARK   16  A    between atoms: _40  and  _43
REMARK   17  A    between atoms: _43  and  _44
REMARK   18  A    between atoms: _44  and  _45
REMARK   19  A    between atoms: _45  and  _46
REMARK   20  A    between atoms: _46  and  _47
REMARK   21  A    between atoms: _51  and  _53
REMARK   22  A    between atoms: _53  and  _54
REMARK   23  A    between atoms: _53  and  _56
REMARK   24  A    between atoms: _59  and  _61
REMARK   25  A    between atoms: _61  and  _62
REMARK   26  A    between atoms: _61  and  _64
REMARK   27  A    between atoms: _64  and  _65
REMARK   28  A    between atoms: _71  and  _73
REMARK   29  A    between atoms: _73  and  _74
REMARK   30  A    between atoms: _73  and  _76
REMARK   31  A    between atoms: _76  and  _77
REMARK   32  A    between atoms: _77  and  _78
REMARK   33  A    between atoms: _78  and  _79
REMARK   34  A    between atoms: _88  and  _90
REMARK   35  A    between atoms: _90  and  _91
REMARK   36  A    between atoms: _93  and  _95
REMARK   37  A    between atoms: _95  and  _96
REMARK   38  A    between atoms: _95  and  _98
REMARK   39  A    between atoms: _98  and  _99
REMARK   40  A    between atoms: _99  and  _100
REMARK   41  A    between atoms: _100  and  _101
REMARK   42  A    between atoms: _101  and  _102
REMARK   43  A    between atoms: _106  and  _108
REMARK   44  A    between atoms: _108  and  _109
REMARK   45  A    between atoms: _108  and  _111
REMARK   46  A    between atoms: _111  and  _112
REMARK   47  A    between atoms: _115  and  _117
REMARK   48  A    between atoms: _117  and  _118
REMARK   49  A    between atoms: _117  and  _120
REMARK   50  A    between atoms: _120  and  _121
REMARK   51  A    between atoms: _126  and  _127
REMARK   52  A    between atoms: _129  and  _131
REMARK   53  A    between atoms: _131  and  _132
REMARK   54  A    between atoms: _131  and  _134
REMARK   55  A    between atoms: _134  and  _135
REMARK   56  A    between atoms: _135  and  _136
REMARK   57  A    between atoms: _141  and  _143
REMARK   58  A    between atoms: _143  and  _144
REMARK   59  A    between atoms: _143  and  _146
REMARK   60  A    between atoms: _146  and  _147
REMARK   61  A    between atoms: _147  and  _148
REMARK   62  A    between atoms: _148  and  _149
REMARK   63  A    between atoms: _158  and  _160
REMARK   64  A    between atoms: _160  and  _161
REMARK   65  A    between atoms: _163  and  _165
REMARK   66  A    between atoms: _165  and  _166
REMARK   67  A    between atoms: _165  and  _168
REMARK   68  A    between atoms: _168  and  _169
REMARK   69  A    between atoms: _174  and  _176
REMARK   70  A    between atoms: _176  and  _177
REMARK   71  A    between atoms: _176  and  _179
REMARK   72  A    between atoms: _179  and  _180
REMARK   73  A    between atoms: _183  and  _185
REMARK   74  A    between atoms: _185  and  _186
REMARK   75  A    between atoms: _185  and  _188
REMARK   76  A    between atoms: _188  and  _189
REMARK   77  A    between atoms: _192  and  _194
REMARK   78  A    between atoms: _194  and  _195
REMARK   79  A    between atoms: _194  and  _197
REMARK   80  A    between atoms: _197  and  _198
REMARK   81  A    between atoms: _203  and  _205
REMARK   82  A    between atoms: _205  and  _206
REMARK   83  A    between atoms: _205  and  _208
REMARK   84  A    between atoms: _208  and  _209
REMARK   85  A    between atoms: _212  and  _214
REMARK   86  A    between atoms: _214  and  _215
REMARK   87  A    between atoms: _214  and  _217
REMARK   88  A    between atoms: _217  and  _218
REMARK   89  A    between atoms: _223  and  _225
REMARK   90  A    between atoms: _225  and  _226
REMARK   91  A    between atoms: _228  and  _230
REMARK   92  A    between atoms: _230  and  _231
REMARK   93  A    between atoms: _230  and  _233
REMARK   94  A    between atoms: _233  and  _234
REMARK   95  A    between atoms: _238  and  ZN_939
REMARK   96  A    between atoms: _239  and  _241
REMARK   97  A    between atoms: _241  and  _242
REMARK   98  A    between atoms: _241  and  _244
REMARK   99  A    between atoms: _244  and  _245
REMARK  100  A    between atoms: _248  and  _250
REMARK  101  A    between atoms: _250  and  _251
REMARK  102  A    between atoms: _250  and  _253
REMARK  103  A    between atoms: _253  and  _254
REMARK  104  A    between atoms: _264  and  _266
REMARK  105  A    between atoms: _266  and  _267
REMARK  106  A    between atoms: _266  and  _269
REMARK  107  A    between atoms: _269  and  _270
REMARK  108  A    between atoms: _273  and  _275
REMARK  109  A    between atoms: _275  and  _276
REMARK  110  A    between atoms: _275  and  _278
REMARK  111  A    between atoms: _278  and  _279
REMARK  112  A    between atoms: _279  and  _280
REMARK  113  A    between atoms: _279  and  _281
REMARK  114  A    between atoms: _280  and  ZN_939
REMARK  115  A    between atoms: _281  and  ZN_938
REMARK  116  A    between atoms: _283  and  _284
REMARK  117  A    between atoms: _289  and  _291
REMARK  118  A    between atoms: _291  and  _292
REMARK  119  A    between atoms: _295  and  _297
REMARK  120  A    between atoms: _297  and  _298
REMARK  121  A    between atoms: _297  and  _300
REMARK  122  A    between atoms: _300  and  _301
REMARK  123  A    between atoms: _301  and  _302
REMARK  124  A    between atoms: _305  and  _307
REMARK  125  A    between atoms: _307  and  _308
REMARK  126  A    between atoms: _307  and  _310
REMARK  127  A    between atoms: _310  and  _311
REMARK  128  A    between atoms: _311  and  _312
REMARK  129  A    between atoms: _312  and  _314
REMARK  130  A    between atoms: _314  and  ZN_938
REMARK  131  A    between atoms: _315  and  _317
REMARK  132  A    between atoms: _317  and  _318
REMARK  133  A    between atoms: _317  and  _320
REMARK  134  A    between atoms: _320  and  _321
REMARK  135  A    between atoms: _327  and  _329
REMARK  136  A    between atoms: _329  and  _330
REMARK  137  A    between atoms: _332  and  _334
REMARK  138  A    between atoms: _334  and  _335
REMARK  139  A    between atoms: _334  and  _337
REMARK  140  A    between atoms: _337  and  _338
REMARK  141  A    between atoms: _341  and  _343
REMARK  142  A    between atoms: _343  and  _344
REMARK  143  A    between atoms: _343  and  _346
REMARK  144  A    between atoms: _346  and  _347
REMARK  145  A    between atoms: _350  and  _352
REMARK  146  A    between atoms: _352  and  _353
REMARK  147  A    between atoms: _352  and  _355
REMARK  148  A    between atoms: _355  and  _356
REMARK  149  A    between atoms: _361  and  _363
REMARK  150  A    between atoms: _363  and  _364
REMARK  151  A    between atoms: _363  and  _366
REMARK  152  A    between atoms: _366  and  _367
REMARK  153  A    between atoms: _367  and  _369
REMARK  154  A    between atoms: _369  and  ZN_939
REMARK  155  A    between atoms: _370  and  _372
REMARK  156  A    between atoms: _372  and  _373
REMARK  157  A    between atoms: _372  and  _375
REMARK  158  A    between atoms: _375  and  _376
REMARK  159  A    between atoms: _378  and  _380
REMARK  160  A    between atoms: _380  and  _381
REMARK  161  A    between atoms: _380  and  _383
REMARK  162  A    between atoms: _383  and  _384
REMARK  163  A    between atoms: _386  and  _388
REMARK  164  A    between atoms: _388  and  _389
REMARK  165  A    between atoms: _388  and  _391
REMARK  166  A    between atoms: _391  and  _392
REMARK  167  A    between atoms: _395  and  _397
REMARK  168  A    between atoms: _397  and  _398
REMARK  169  A    between atoms: _397  and  _400
REMARK  170  A    between atoms: _400  and  _401
REMARK  171  A    between atoms: _401  and  _402
REMARK  172  A    between atoms: _405  and  _407
REMARK  173  A    between atoms: _407  and  _408
REMARK  174  A    between atoms: _407  and  _410
REMARK  175  A    between atoms: _410  and  _411
REMARK  176  A    between atoms: _416  and  _417
REMARK  177  A    between atoms: _419  and  _421
REMARK  178  A    between atoms: _421  and  _422
REMARK  179  A    between atoms: _421  and  _424
REMARK  180  A    between atoms: _424  and  _425
REMARK  181  A    between atoms: _428  and  _430
REMARK  182  A    between atoms: _430  and  _431
REMARK  183  A    between atoms: _430  and  _433
REMARK  184  A    between atoms: _433  and  _434
REMARK  185  A    between atoms: _437  and  _439
REMARK  186  A    between atoms: _439  and  _440
REMARK  187  A    between atoms: _439  and  _442
REMARK  188  A    between atoms: _442  and  _443
REMARK  189  A    between atoms: _443  and  _444
REMARK  190  A    between atoms: _444  and  _445
REMARK  191  A    between atoms: _454  and  _456
REMARK  192  A    between atoms: _456  and  _457
REMARK  193  A    between atoms: _456  and  _459
REMARK  194  A    between atoms: _462  and  _464
REMARK  195  A    between atoms: _464  and  _465
REMARK  196  A    between atoms: _464  and  _467
REMARK  197  A    between atoms: _467  and  _468
REMARK  198  A    between atoms: _471  and  _473
REMARK  199  A    between atoms: _473  and  _474
REMARK  200  A    between atoms: _473  and  _476
REMARK  201  A    between atoms: _476  and  _477
REMARK  202  A    between atoms: _487  and  _489
REMARK  203  A    between atoms: _489  and  _490
REMARK  204  A    between atoms: _489  and  _492
REMARK  205  A    between atoms: _492  and  _493
REMARK  206  A    between atoms: _493  and  _494
REMARK  207  A    between atoms: _494  and  _495
REMARK  208  A    between atoms: _495  and  _496
REMARK  209  A    between atoms: _500  and  _502
REMARK  210  A    between atoms: _502  and  _503
REMARK  211  A    between atoms: _502  and  _505
REMARK  212  A    between atoms: _505  and  _506
REMARK  213  A    between atoms: _509  and  _510
REMARK  214  A    between atoms: _516  and  _517
REMARK  215  A    between atoms: _522  and  _524
REMARK  216  A    between atoms: _524  and  _525
REMARK  217  A    between atoms: _524  and  _527
REMARK  218  A    between atoms: _527  and  _528
REMARK  219  A    between atoms: _528  and  _529
REMARK  220  A    between atoms: _529  and  _530
REMARK  221  A    between atoms: _539  and  _541
REMARK  222  A    between atoms: _541  and  _542
REMARK  223  A    between atoms: _541  and  _544
REMARK  224  A    between atoms: _544  and  _545
REMARK  225  A    between atoms: _548  and  _550
REMARK  226  A    between atoms: _550  and  _551
REMARK  227  A    between atoms: _550  and  _553
REMARK  228  A    between atoms: _553  and  _554
REMARK  229  A    between atoms: _556  and  _558
REMARK  230  A    between atoms: _558  and  _559
REMARK  231  A    between atoms: _558  and  _561
REMARK  232  A    between atoms: _561  and  _562
REMARK  233  A    between atoms: _562  and  _563
REMARK  234  A    between atoms: _563  and  _564
REMARK  235  A    between atoms: _564  and  _565
REMARK  236  A    between atoms: _569  and  _571
REMARK  237  A    between atoms: _571  and  _572
REMARK  238  A    between atoms: _571  and  _574
REMARK  239  A    between atoms: _574  and  _575
REMARK  240  A    between atoms: _578  and  _580
REMARK  241  A    between atoms: _580  and  _581
REMARK  242  A    between atoms: _583  and  _585
REMARK  243  A    between atoms: _585  and  _586
REMARK  244  A    between atoms: _585  and  _588
REMARK  245  A    between atoms: _588  and  _589
REMARK  246  A    between atoms: _591  and  _593
REMARK  247  A    between atoms: _593  and  _594
REMARK  248  A    between atoms: _596  and  _598
REMARK  249  A    between atoms: _598  and  _599
REMARK  250  A    between atoms: _598  and  _601
REMARK  251  A    between atoms: _601  and  _602
REMARK  252  A    between atoms: _607  and  _609
REMARK  253  A    between atoms: _609  and  _610
REMARK  254  A    between atoms: _609  and  _612
REMARK  255  A    between atoms: _612  and  _613
REMARK  256  A    between atoms: _616  and  _618
REMARK  257  A    between atoms: _618  and  _619
REMARK  258  A    between atoms: _618  and  _621
REMARK  259  A    between atoms: _621  and  _622
REMARK  260  A    between atoms: _628  and  _630
REMARK  261  A    between atoms: _630  and  _631
REMARK  262  A    between atoms: _630  and  _633
REMARK  263  A    between atoms: _633  and  _634
REMARK  264  A    between atoms: _634  and  _635
REMARK  265  A    between atoms: _638  and  _640
REMARK  266  A    between atoms: _640  and  _641
REMARK  267  A    between atoms: _640  and  _643
REMARK  268  A    between atoms: _643  and  _644
REMARK  269  A    between atoms: _644  and  _645
REMARK  270  A    between atoms: _645  and  _646
REMARK  271  A    between atoms: _655  and  _657
REMARK  272  A    between atoms: _657  and  _658
REMARK  273  A    between atoms: _657  and  _660
REMARK  274  A    between atoms: _660  and  _661
REMARK  275  A    between atoms: _661  and  _662
REMARK  276  A    between atoms: _662  and  _663
REMARK  277  A    between atoms: _672  and  _674
REMARK  278  A    between atoms: _674  and  _675
REMARK  279  A    between atoms: _674  and  _677
REMARK  280  A    between atoms: _677  and  _678
REMARK  281  A    between atoms: _683  and  _684
REMARK  282  A    between atoms: _686  and  _688
REMARK  283  A    between atoms: _688  and  _689
REMARK  284  A    between atoms: _688  and  _691
REMARK  285  A    between atoms: _691  and  _692
REMARK  286  A    between atoms: _695  and  _697
REMARK  287  A    between atoms: _697  and  _698
REMARK  288  A    between atoms: _697  and  _700
REMARK  289  A    between atoms: _700  and  _701
REMARK  290  A    between atoms: _701  and  _702
REMARK  291  A    between atoms: _702  and  _703
REMARK  292  A    between atoms: _703  and  _704
REMARK  293  A    between atoms: _708  and  _710
REMARK  294  A    between atoms: _710  and  _711
REMARK  295  A    between atoms: _710  and  _713
REMARK  296  A    between atoms: _713  and  _714
REMARK  297  A    between atoms: _719  and  _721
REMARK  298  A    between atoms: _721  and  _722
REMARK  299  A    between atoms: _721  and  _724
REMARK  300  A    between atoms: _724  and  _725
REMARK  301  A    between atoms: _735  and  _737
REMARK  302  A    between atoms: _737  and  _738
REMARK  303  A    between atoms: _737  and  _740
REMARK  304  A    between atoms: _740  and  _741
REMARK  305  A    between atoms: _741  and  _742
REMARK  306  A    between atoms: _745  and  _747
REMARK  307  A    between atoms: _747  and  _748
REMARK  308  A    between atoms: _747  and  _750
REMARK  309  A    between atoms: _750  and  _751
REMARK  310  A    between atoms: _754  and  _756
REMARK  311  A    between atoms: _756  and  _757
REMARK  312  A    between atoms: _756  and  _759
REMARK  313  A    between atoms: _759  and  _760
REMARK  314  A    between atoms: _765  and  _767
REMARK  315  A    between atoms: _767  and  _768
REMARK  316  A    between atoms: _767  and  _770
REMARK  317  A    between atoms: _770  and  _771
REMARK  318  A    between atoms: _777  and  _779
REMARK  319  A    between atoms: _779  and  _780
REMARK  320  A    between atoms: _779  and  _782
REMARK  321  A    between atoms: _782  and  _783
REMARK  322  A    between atoms: _785  and  _787
REMARK  323  A    between atoms: _787  and  _788
REMARK  324  A    between atoms: _790  and  _792
REMARK  325  A    between atoms: _792  and  _793
REMARK  326  A    between atoms: _792  and  _795
REMARK  327  A    between atoms: _795  and  _796
REMARK  328  A    between atoms: _801  and  _802
REMARK  329  A    between atoms: _804  and  _806
REMARK  330  A    between atoms: _806  and  _807
REMARK  331  A    between atoms: _806  and  _809
REMARK  332  A    between atoms: _809  and  _810
REMARK  333  A    between atoms: _815  and  _816
REMARK  334  A    between atoms: _818  and  _820
REMARK  335  A    between atoms: _820  and  _821
REMARK  336  A    between atoms: _820  and  _823
REMARK  337  A    between atoms: _823  and  _824
REMARK  338  A    between atoms: _828  and  ZN_938
REMARK  339  A    between atoms: _829  and  _831
REMARK  340  A    between atoms: _831  and  _832
REMARK  341  A    between atoms: _831  and  _834
REMARK  342  A    between atoms: _834  and  _835
REMARK  343  A    between atoms: _835  and  _836
REMARK  344  A    between atoms: _839  and  _841
REMARK  345  A    between atoms: _841  and  _842
REMARK  346  A    between atoms: _841  and  _844
REMARK  347  A    between atoms: _844  and  _845
REMARK  348  A    between atoms: _845  and  _846
REMARK  349  A    between atoms: _846  and  _847
REMARK  350  A    between atoms: _856  and  _858
REMARK  351  A    between atoms: _858  and  _859
REMARK  352  A    between atoms: _858  and  _861
REMARK  353  A    between atoms: _861  and  _862
REMARK  354  A    between atoms: _867  and  _868
REMARK  355  A    between atoms: _870  and  _872
REMARK  356  A    between atoms: _872  and  _873
REMARK  357  A    between atoms: _872  and  _875
REMARK  358  A    between atoms: _875  and  _876
REMARK  359  A    between atoms: _878  and  _880
REMARK  360  A    between atoms: _880  and  _881
REMARK  361  A    between atoms: _880  and  _883
REMARK  362  A    between atoms: _883  and  _884
REMARK  363  A    between atoms: _889  and  _891
REMARK  364  A    between atoms: _891  and  _892
REMARK  365  A    between atoms: _891  and  _894
REMARK  366  A    between atoms: _894  and  _895
REMARK  367  A    between atoms: _900  and  _902
REMARK  368  A    between atoms: _902  and  _903
REMARK  369  A    between atoms: _902  and  _905
REMARK  370  A    between atoms: _905  and  _906
REMARK  371  A    between atoms: _906  and  _907
REMARK  372  A    between atoms: _907  and  _908
REMARK  373  A    between atoms: _908  and  _909
REMARK  374  A    between atoms: _913  and  _915
REMARK  375  A    between atoms: _915  and  _916
REMARK  376  A    between atoms: _915  and  _918
REMARK  377  A    between atoms: _918  and  _919
REMARK  378  A    between atoms: _924  and  _925
REMARK  379  A    between atoms: _927  and  _929
REMARK  380  A    between atoms: _929  and  _930
REMARK  381  A    between atoms: _933  and  _935
REMARK  382  A    between atoms: _935  and  _936
REMARK                            x       y       z     vdW  Elec       q    Type
REMARK                         _______ _______ _______ _____ _____    ______ ____
ROOT
ATOM      1  CA  VAL A   4      23.920  50.924  35.383  0.00  0.00    +0.149 C 
ENDROOT
BRANCH   1   2
ATOM      2  C   VAL A   4      22.871  49.853  35.382  0.00  0.00    +0.241 C 
ATOM      3  N   PHE A   5      21.688  50.206  35.898  0.00  0.00    -0.297 N 
ATOM      4  H   PHE A   5      21.577  51.152  36.315  0.00  0.00    +0.150 HD
ATOM      5  O   VAL A   4      23.113  48.738  34.857  0.00  0.00    -0.273 OA
BRANCH   3   6
ATOM      6  CA  PHE A   5      20.534  49.281  35.888  0.00  0.00    +0.153 C 
BRANCH   6   7
ATOM      7  C   PHE A   5      20.223  48.776  34.467  0.00  0.00    +0.241 C 
ATOM      8  N   ARG A   6      19.949  47.477  34.363  0.00  0.00    -0.297 N 
ATOM      9  H   ARG A   6      19.907  46.884  35.216  0.00  0.00    +0.150 HD
ATOM     10  O   PHE A   5      20.165  49.562  33.479  0.00  0.00    -0.273 OA
BRANCH   8  11
ATOM     11  CA  ARG A   6      19.703  46.875  33.022  0.00  0.00    +0.149 C 
BRANCH  11  12
ATOM     12  C   ARG A   6      18.462  47.459  32.297  0.00  0.00    +0.241 C 
ATOM     13  N   GLY A   7      17.462  47.917  33.058  0.00  0.00    -0.296 N 
ATOM     14  H   GLY A   7      17.499  47.786  34.089  0.00  0.00    +0.150 HD
ATOM     15  O   ARG A   6      18.401  47.497  31.059  0.00  0.00    -0.273 OA
BRANCH  13  16
ATOM     16  CA  GLY A   7      16.330  48.592  32.462  0.00  0.00    +0.163 C 
BRANCH  16  17
ATOM     17  C   GLY A   7      16.771  49.861  31.698  0.00  0.00    +0.229 C 
ATOM     18  O   GLY A   7      16.217  50.148  30.631  0.00  0.00    -0.286 OA
ENDBRANCH  16  17
ENDBRANCH  13  16
ENDBRANCH  11  12
BRANCH  11  19
ATOM     19  CB  ARG A   6      19.612  45.351  33.127  0.00  0.00    +0.033 C 
BRANCH  19  20
ATOM     20  CG  ARG A   6      18.308  44.877  33.861  0.00  0.00    +0.045 C 
BRANCH  20  21
ATOM     21  CD  ARG A   6      18.354  43.333  34.048  0.00  0.00    +0.174 C 
BRANCH  21  22
ATOM     22  NE  ARG A   6      19.162  42.919  35.223  0.00  0.00    -0.265 N 
ATOM     23  CZ  ARG A   6      18.729  43.128  36.485  0.00  0.00    +0.342 C 
ATOM     24  NH2 ARG A   6      19.462  42.735  37.532  0.00  0.00    -0.292 N 
ATOM     25 HH21 ARG A   6      19.118  42.901  38.499  0.00  0.00    +0.255 HD
ATOM     26 HH22 ARG A   6      20.376  42.263  37.379  0.00  0.00    +0.255 HD
ATOM     27  NH1 ARG A   6      17.557  43.771  36.684  0.00  0.00    -0.292 N 
ATOM     28 HH11 ARG A   6      17.213  43.938  37.651  0.00  0.00    +0.255 HD
ATOM     29 HH12 ARG A   6      16.999  44.099  35.870  0.00  0.00    +0.255 HD
ATOM     30  HE  ARG A   6      20.082  42.458  35.071  0.00  0.00    +0.259 HD
ENDBRANCH  21  22
ENDBRANCH  20  21
ENDBRANCH  19  20
ENDBRANCH  11  19
ENDBRANCH   8  11
ENDBRANCH   6   7
BRANCH   6  31
ATOM     31  CB  PHE A   5      19.329  50.033  36.461  0.00  0.00    +0.055 C 
BRANCH  31  32
ATOM     32  CG  PHE A   5      18.035  49.264  36.388  0.00  0.00    -0.020 A 
ATOM     33  CD2 PHE A   5      17.930  48.033  37.045  0.00  0.00    -0.004 A 
ATOM     34  CE2 PHE A   5      16.709  47.323  37.051  0.00  0.00    -0.000 A 
ATOM     35  CZ  PHE A   5      15.589  47.848  36.348  0.00  0.00    -0.000 A 
ATOM     36  CE1 PHE A   5      15.665  49.107  35.727  0.00  0.00    -0.000 A 
ATOM     37  CD1 PHE A   5      16.885  49.829  35.739  0.00  0.00    -0.004 A 
ENDBRANCH  31  32
ENDBRANCH   6  31
ENDBRANCH   3   6
ENDBRANCH   1   2
BRANCH   1  40
ATOM     38  C   LYS A   3      26.311  50.824  35.933  0.00  0.00    +0.241 C 
ATOM     39  O   LYS A   3      26.198  51.740  36.774  0.00  0.00    -0.273 OA
ATOM     40  N   VAL A   4      25.281  50.331  35.240  0.00  0.00    -0.297 N 
ATOM     41  H   VAL A   4      25.429  49.528  34.596  0.00  0.00    +0.150 HD
BRANCH  38  42
ATOM     42  CA  LYS A   3      27.682  50.202  35.710  0.00  0.00    +0.149 C 
BRANCH  42  44
ATOM     43  C   GLY A   2      27.187  47.967  34.725  0.00  0.00    +0.243 C 
ATOM     44  N   LYS A   3      27.675  48.714  35.722  0.00  0.00    -0.297 N 
ATOM     45  H   LYS A   3      28.071  48.228  36.551  0.00  0.00    +0.150 HD
ATOM     46  O   GLY A   2      26.602  48.414  33.744  0.00  0.00    -0.273 OA
BRANCH  43  47
ATOM     47  CA  GLY A   2      27.431  46.475  34.835  0.00  0.00    +0.176 C 
BRANCH  47  49
ATOM     48  C   TYR A   1      27.035  44.860  33.032  0.00  0.00    +0.239 C 
ATOM     49  N   GLY A   2      26.544  45.705  33.952  0.00  0.00    -0.296 N 
ATOM     50  H   GLY A   2      25.514  45.817  34.042  0.00  0.00    +0.150 HD
ATOM     51  O   TYR A   1      28.261  44.696  32.833  0.00  0.00    -0.274 OA
BRANCH  48  52
ATOM     52  CA  TYR A   1      26.018  44.042  32.258  0.00  0.00    +0.149 C 
BRANCH  52  53
ATOM     53  N   TYR A   1      26.649  43.615  31.016  0.00  0.00    -0.238 NA
ATOM     54  H   TYR A   1      26.833  42.604  30.859  0.00  0.00    +0.142 HD
ENDBRANCH  52  53
BRANCH  52  55
ATOM     55  CB  TYR A   1      25.700  42.804  33.049  0.00  0.00    +0.053 C 
BRANCH  55  56
ATOM     56  CG  TYR A   1      24.331  42.174  32.879  0.00  0.00    -0.020 A 
ATOM     57  CD2 TYR A   1      23.152  42.908  33.139  0.00  0.00    -0.001 A 
ATOM     58  CE2 TYR A   1      21.881  42.316  33.096  0.00  0.00    +0.036 A 
ATOM     59  CZ  TYR A   1      21.757  40.921  32.857  0.00  0.00    +0.134 A 
ATOM     60  CE1 TYR A   1      22.959  40.160  32.556  0.00  0.00    +0.036 A 
ATOM     61  CD1 TYR A   1      24.217  40.802  32.641  0.00  0.00    -0.001 A 
BRANCH  59  62
ATOM     62  OH  TYR A   1      20.517  40.340  32.869  0.00  0.00    -0.506 OA
ATOM     63  HH  TYR A   1      20.606  39.371  32.687  0.00  0.00    +0.292 HD
ENDBRANCH  59  62
ENDBRANCH  55  56
ENDBRANCH  52  55
ENDBRANCH  48  52
ENDBRANCH  47  49
ENDBRANCH  43  47
ENDBRANCH  42  44
BRANCH  42  64
ATOM     64  CB  LYS A   3      28.255  50.801  34.433  0.00  0.00    +0.029 C 
BRANCH  64  65
ATOM     65  CG  LYS A   3      29.705  50.307  34.077  0.00  0.00    +0.000 C 
BRANCH  65  66
ATOM     66  CD  LYS A   3      30.720  50.747  35.109  0.00  0.00    -0.024 C 
BRANCH  66  67
ATOM     67  CE  LYS A   3      32.122  50.368  34.595  0.00  0.00    -0.086 C 
BRANCH  67  68
ATOM     68  NZ  LYS A   3      33.119  50.795  35.647  0.00  0.00    +0.380 N 
ATOM     69  HZ1 LYS A   3      32.912  50.302  36.539  0.00  0.00    -0.089 HD
ATOM     70  HZ2 LYS A   3      33.049  51.822  35.792  0.00  0.00    -0.089 HD
ATOM     71  HZ3 LYS A   3      34.080  50.553  35.331  0.00  0.00    -0.089 HD
ENDBRANCH  67  68
ENDBRANCH  66  67
ENDBRANCH  65  66
ENDBRANCH  64  65
ENDBRANCH  42  64
ENDBRANCH  38  42
ENDBRANCH   1  40
BRANCH   1  72
ATOM     72  CB  VAL A   4      23.598  51.950  34.229  0.00  0.00    +0.027 C 
ATOM     73  CG2 VAL A   4      24.668  53.070  34.210  0.00  0.00    +0.002 C 
ATOM     74  CG1 VAL A   4      23.436  51.278  32.860  0.00  0.00    +0.002 C 
ENDBRANCH   1  72
TORSDOF 29
REMARK  Name = ../refined-set-2016/2xeg/2xeg_pocket.pdb
REMARK  382 active torsions:
REMARK  status: ('A' for Active; 'I' for Inactive)
REMARK    1  A    between atoms: _1  and  _3
REMARK    2  A    between atoms: _3  and  _4
REMARK    3  A    between atoms: _7  and  _9
REMARK    4  A    between atoms: _9  and  _10
REMARK    5  A    between atoms: _9  and  _12
REMARK    6  A    between atoms: _12  and  _13
REMARK    7  A    between atoms: _19  and  _21
REMARK    8  A    between atoms: _21  and  _22
REMARK    9  A    between atoms: _21  and  _24
REMARK   10  A    between atoms: _24  and  _25
REMARK   11  A    between atoms: _30  and  _31
REMARK   12  A    between atoms: _33  and  _35
REMARK   13  A    between atoms: _35  and  _36
REMARK   14  A    between atoms: _38  and  _40
REMARK   15  A    between atoms: _40  and  _41
REMARK   16  A    between atoms: _40  and  _43
REMARK   17  A    between atoms: _43  and  _44
REMARK   18  A    between atoms: _44  and  _45
REMARK   19  A    between atoms: _45  and  _46
REMARK   20  A    between atoms: _46  and  _47
REMARK   21  A    between atoms: _51  and  _53
REMARK   22  A    between atoms: _53  and  _54
REMARK   23  A    between atoms: _53  and  _56
REMARK   24  A    between atoms: _59  and  _61
REMARK   25  A    between atoms: _61  and  _62
REMARK   26  A    between atoms: _61  and  _64
REMARK   27  A    between atoms: _64  and  _65
REMARK   28  A    between atoms: _71  and  _73
REMARK   29  A    between atoms: _73  and  _74
REMARK   30  A    between atoms: _73  and  _76
REMARK   31  A    between atoms: _76  and  _77
REMARK   32  A    between atoms: _77  and  _78
REMARK   33  A    between atoms: _78  and  _79
REMARK   34  A    between atoms: _88  and  _90
REMARK   35  A    between atoms: _90  and  _91
REMARK   36  A    between atoms: _93  and  _95
REMARK   37  A    between atoms: _95  and  _96
REMARK   38  A    between atoms: _95  and  _98
REMARK   39  A    between atoms: _98  and  _99
REMARK   40  A    between atoms: _99  and  _100
REMARK   41  A    between atoms: _100  and  _101
REMARK   42  A    between atoms: _101  and  _102
REMARK   43  A    between atoms: _106  and  _108
REMARK   44  A    between atoms: _108  and  _109
REMARK   45  A    between atoms: _108  and  _111
REMARK   46  A    between atoms: _111  and  _112
REMARK   47  A    between atoms: _115  and  _117
REMARK   48  A    between atoms: _117  and  _118
REMARK   49  A    between atoms: _117  and  _120
REMARK   50  A    between atoms: _120  and  _121
REMARK   51  A    between atoms: _126  and  _127
REMARK   52  A    between atoms: _129  and  _131
REMARK   53  A    between atoms: _131  and  _132
REMARK   54  A    between atoms: _131  and  _134
REMARK   55  A    between atoms: _134  and  _135
REMARK   56  A    between atoms: _135  and  _136
REMARK   57  A    between atoms: _141  and  _143
REMARK   58  A    between atoms: _143  and  _144
REMARK   59  A    between atoms: _143  and  _146
REMARK   60  A    between atoms: _146  and  _147
REMARK   61  A    between atoms: _147  and  _148
REMARK   62  A    between atoms: _148  and  _149
REMARK   63  A    between atoms: _158  and  _160
REMARK   64  A    between atoms: _160  and  _161
REMARK   65  A    between atoms: _163  and  _165
REMARK   66  A    between atoms: _165  and  _166
REMARK   67  A    between atoms: _165  and  _168
REMARK   68  A    between atoms: _168  and  _169
REMARK   69  A    between atoms: _174  and  _176
REMARK   70  A    between atoms: _176  and  _177
REMARK   71  A    between atoms: _176  and  _179
REMARK   72  A    between atoms: _179  and  _180
REMARK   73  A    between atoms: _183  and  _185
REMARK   74  A    between atoms: _185  and  _186
REMARK   75  A    between atoms: _185  and  _188
REMARK   76  A    between atoms: _188  and  _189
REMARK   77  A    between atoms: _192  and  _194
REMARK   78  A    between atoms: _194  and  _195
REMARK   79  A    between atoms: _194  and  _197
REMARK   80  A    between atoms: _197  and  _198
REMARK   81  A    between atoms: _203  and  _205
REMARK   82  A    between atoms: _205  and  _206
REMARK   83  A    between atoms: _205  and  _208
REMARK   84  A    between atoms: _208  and  _209
REMARK   85  A    between atoms: _212  and  _214
REMARK   86  A    between atoms: _214  and  _215
REMARK   87  A    between atoms: _214  and  _217
REMARK   88  A    between atoms: _217  and  _218
REMARK   89  A    between atoms: _223  and  _225
REMARK   90  A    between atoms: _225  and  _226
REMARK   91  A    between atoms: _228  and  _230
REMARK   92  A    between atoms: _230  and  _231
REMARK   93  A    between atoms: _230  and  _233
REMARK   94  A    between atoms: _233  and  _234
REMARK   95  A    between atoms: _238  and  ZN_939
REMARK   96  A    between atoms: _239  and  _241
REMARK   97  A    between atoms: _241  and  _242
REMARK   98  A    between atoms: _241  and  _244
REMARK   99  A    between atoms: _244  and  _245
REMARK  100  A    between atoms: _248  and  _250
REMARK  101  A    between atoms: _250  and  _251
REMARK  102  A    between atoms: _250  and  _253
REMARK  103  A    between atoms: _253  and  _254
REMARK  104  A    between atoms: _264  and  _266
REMARK  105  A    between atoms: _266  and  _267
REMARK  106  A    between atoms: _266  and  _269
REMARK  107  A    between atoms: _269  and  _270
REMARK  108  A    between atoms: _273  and  _275
REMARK  109  A    between atoms: _275  and  _276
REMARK  110  A    between atoms: _275  and  _278
REMARK  111  A    between atoms: _278  and  _279
REMARK  112  A    between atoms: _279  and  _280
REMARK  113  A    between atoms: _279  and  _281
REMARK  114  A    between atoms: _280  and  ZN_939
REMARK  115  A    between atoms: _281  and  ZN_938
REMARK  116  A    between atoms: _283  and  _284
REMARK  117  A    between atoms: _289  and  _291
REMARK  118  A    between atoms: _291  and  _292
REMARK  119  A    between atoms: _295  and  _297
REMARK  120  A    between atoms: _297  and  _298
REMARK  121  A    between atoms: _297  and  _300
REMARK  122  A    between atoms: _300  and  _301
REMARK  123  A    between atoms: _301  and  _302
REMARK  124  A    between atoms: _305  and  _307
REMARK  125  A    between atoms: _307  and  _308
REMARK  126  A    between atoms: _307  and  _310
REMARK  127  A    between atoms: _310  and  _311
REMARK  128  A    between atoms: _311  and  _312
REMARK  129  A    between atoms: _312  and  _314
REMARK  130  A    between atoms: _314  and  ZN_938
REMARK  131  A    between atoms: _315  and  _317
REMARK  132  A    between atoms: _317  and  _318
REMARK  133  A    between atoms: _317  and  _320
REMARK  134  A    between atoms: _320  and  _321
REMARK  135  A    between atoms: _327  and  _329
REMARK  136  A    between atoms: _329  and  _330
REMARK  137  A    between atoms: _332  and  _334
REMARK  138  A    between atoms: _334  and  _335
REMARK  139  A    between atoms: _334  and  _337
REMARK  140  A    between atoms: _337  and  _338
REMARK  141  A    between atoms: _341  and  _343
REMARK  142  A    between atoms: _343  and  _344
REMARK  143  A    between atoms: _343  and  _346
REMARK  144  A    between atoms: _346  and  _347
REMARK  145  A    between atoms: _350  and  _352
REMARK  146  A    between atoms: _352  and  _353
REMARK  147  A    between atoms: _352  and  _355
REMARK  148  A    between atoms: _355  and  _356
REMARK  149  A    between atoms: _361  and  _363
REMARK  150  A    between atoms: _363  and  _364
REMARK  151  A    between atoms: _363  and  _366
REMARK  152  A    between atoms: _366  and  _367
REMARK  153  A    between atoms: _367  and  _369
REMARK  154  A    between atoms: _369  and  ZN_939
REMARK  155  A    between atoms: _370  and  _372
REMARK  156  A    between atoms: _372  and  _373
REMARK  157  A    between atoms: _372  and  _375
REMARK  158  A    between atoms: _375  and  _376
REMARK  159  A    between atoms: _378  and  _380
REMARK  160  A    between atoms: _380  and  _381
REMARK  161  A    between atoms: _380  and  _383
REMARK  162  A    between atoms: _383  and  _384
REMARK  163  A    between atoms: _386  and  _388
REMARK  164  A    between atoms: _388  and  _389
REMARK  165  A    between atoms: _388  and  _391
REMARK  166  A    between atoms: _391  and  _392
REMARK  167  A    between atoms: _395  and  _397
REMARK  168  A    between atoms: _397  and  _398
REMARK  169  A    between atoms: _397  and  _400
REMARK  170  A    between atoms: _400  and  _401
REMARK  171  A    between atoms: _401  and  _402
REMARK  172  A    between atoms: _405  and  _407
REMARK  173  A    between atoms: _407  and  _408
REMARK  174  A    between atoms: _407  and  _410
REMARK  175  A    between atoms: _410  and  _411
REMARK  176  A    between atoms: _416  and  _417
REMARK  177  A    between atoms: _419  and  _421
REMARK  178  A    between atoms: _421  and  _422
REMARK  179  A    between atoms: _421  and  _424
REMARK  180  A    between atoms: _424  and  _425
REMARK  181  A    between atoms: _428  and  _430
REMARK  182  A    between atoms: _430  and  _431
REMARK  183  A    between atoms: _430  and  _433
REMARK  184  A    between atoms: _433  and  _434
REMARK  185  A    between atoms: _437  and  _439
REMARK  186  A    between atoms: _439  and  _440
REMARK  187  A    between atoms: _439  and  _442
REMARK  188  A    between atoms: _442  and  _443
REMARK  189  A    between atoms: _443  and  _444
REMARK  190  A    between atoms: _444  and  _445
REMARK  191  A    between atoms: _454  and  _456
REMARK  192  A    between atoms: _456  and  _457
REMARK  193  A    between atoms: _456  and  _459
REMARK  194  A    between atoms: _462  and  _464
REMARK  195  A    between atoms: _464  and  _465
REMARK  196  A    between atoms: _464  and  _467
REMARK  197  A    between atoms: _467  and  _468
REMARK  198  A    between atoms: _471  and  _473
REMARK  199  A    between atoms: _473  and  _474
REMARK  200  A    between atoms: _473  and  _476
REMARK  201  A    between atoms: _476  and  _477
REMARK  202  A    between atoms: _487  and  _489
REMARK  203  A    between atoms: _489  and  _490
REMARK  204  A    between atoms: _489  and  _492
REMARK  205  A    between atoms: _492  and  _493
REMARK  206  A    between atoms: _493  and  _494
REMARK  207  A    between atoms: _494  and  _495
REMARK  208  A    between atoms: _495  and  _496
REMARK  209  A    between atoms: _500  and  _502
REMARK  210  A    between atoms: _502  and  _503
REMARK  211  A    between atoms: _502  and  _505
REMARK  212  A    between atoms: _505  and  _506
REMARK  213  A    between atoms: _509  and  _510
REMARK  214  A    between atoms: _516  and  _517
REMARK  215  A    between atoms: _522  and  _524
REMARK  216  A    between atoms: _524  and  _525
REMARK  217  A    between atoms: _524  and  _527
REMARK  218  A    between atoms: _527  and  _528
REMARK  219  A    between atoms: _528  and  _529
REMARK  220  A    between atoms: _529  and  _530
REMARK  221  A    between atoms: _539  and  _541
REMARK  222  A    between atoms: _541  and  _542
REMARK  223  A    between atoms: _541  and  _544
REMARK  224  A    between atoms: _544  and  _545
REMARK  225  A    between atoms: _548  and  _550
REMARK  226  A    between atoms: _550  and  _551
REMARK  227  A    between atoms: _550  and  _553
REMARK  228  A    between atoms: _553  and  _554
REMARK  229  A    between atoms: _556  and  _558
REMARK  230  A    between atoms: _558  and  _559
REMARK  231  A    between atoms: _558  and  _561
REMARK  232  A    between atoms: _561  and  _562
REMARK  233  A    between atoms: _562  and  _563
REMARK  234  A    between atoms: _563  and  _564
REMARK  235  A    between atoms: _564  and  _565
REMARK  236  A    between atoms: _569  and  _571
REMARK  237  A    between atoms: _571  and  _572
REMARK  238  A    between atoms: _571  and  _574
REMARK  239  A    between atoms: _574  and  _575
REMARK  240  A    between atoms: _578  and  _580
REMARK  241  A    between atoms: _580  and  _581
REMARK  242  A    between atoms: _583  and  _585
REMARK  243  A    between atoms: _585  and  _586
REMARK  244  A    between atoms: _585  and  _588
REMARK  245  A    between atoms: _588  and  _589
REMARK  246  A    between atoms: _591  and  _593
REMARK  247  A    between atoms: _593  and  _594
REMARK  248  A    between atoms: _596  and  _598
REMARK  249  A    between atoms: _598  and  _599
REMARK  250  A    between atoms: _598  and  _601
REMARK  251  A    between atoms: _601  and  _602
REMARK  252  A    between atoms: _607  and  _609
REMARK  253  A    between atoms: _609  and  _610
REMARK  254  A    between atoms: _609  and  _612
REMARK  255  A    between atoms: _612  and  _613
REMARK  256  A    between atoms: _616  and  _618
REMARK  257  A    between atoms: _618  and  _619
REMARK  258  A    between atoms: _618  and  _621
REMARK  259  A    between atoms: _621  and  _622
REMARK  260  A    between atoms: _628  and  _630
REMARK  261  A    between atoms: _630  and  _631
REMARK  262  A    between atoms: _630  and  _633
REMARK  263  A    between atoms: _633  and  _634
REMARK  264  A    between atoms: _634  and  _635
REMARK  265  A    between atoms: _638  and  _640
REMARK  266  A    between atoms: _640  and  _641
REMARK  267  A    between atoms: _640  and  _643
REMARK  268  A    between atoms: _643  and  _644
REMARK  269  A    between atoms: _644  and  _645
REMARK  270  A    between atoms: _645  and  _646
REMARK  271  A    between atoms: _655  and  _657
REMARK  272  A    between atoms: _657  and  _658
REMARK  273  A    between atoms: _657  and  _660
REMARK  274  A    between atoms: _660  and  _661
REMARK  275  A    between atoms: _661  and  _662
REMARK  276  A    between atoms: _662  and  _663
REMARK  277  A    between atoms: _672  and  _674
REMARK  278  A    between atoms: _674  and  _675
REMARK  279  A    between atoms: _674  and  _677
REMARK  280  A    between atoms: _677  and  _678
REMARK  281  A    between atoms: _683  and  _684
REMARK  282  A    between atoms: _686  and  _688
REMARK  283  A    between atoms: _688  and  _689
REMARK  284  A    between atoms: _688  and  _691
REMARK  285  A    between atoms: _691  and  _692
REMARK  286  A    between atoms: _695  and  _697
REMARK  287  A    between atoms: _697  and  _698
REMARK  288  A    between atoms: _697  and  _700
REMARK  289  A    between atoms: _700  and  _701
REMARK  290  A    between atoms: _701  and  _702
REMARK  291  A    between atoms: _702  and  _703
REMARK  292  A    between atoms: _703  and  _704
REMARK  293  A    between atoms: _708  and  _710
REMARK  294  A    between atoms: _710  and  _711
REMARK  295  A    between atoms: _710  and  _713
REMARK  296  A    between atoms: _713  and  _714
REMARK  297  A    between atoms: _719  and  _721
REMARK  298  A    between atoms: _721  and  _722
REMARK  299  A    between atoms: _721  and  _724
REMARK  300  A    between atoms: _724  and  _725
REMARK  301  A    between atoms: _735  and  _737
REMARK  302  A    between atoms: _737  and  _738
REMARK  303  A    between atoms: _737  and  _740
REMARK  304  A    between atoms: _740  and  _741
REMARK  305  A    between atoms: _741  and  _742
REMARK  306  A    between atoms: _745  and  _747
REMARK  307  A    between atoms: _747  and  _748
REMARK  308  A    between atoms: _747  and  _750
REMARK  309  A    between atoms: _750  and  _751
REMARK  310  A    between atoms: _754  and  _756
REMARK  311  A    between atoms: _756  and  _757
REMARK  312  A    between atoms: _756  and  _759
REMARK  313  A    between atoms: _759  and  _760
REMARK  314  A    between atoms: _765  and  _767
REMARK  315  A    between atoms: _767  and  _768
REMARK  316  A    between atoms: _767  and  _770
REMARK  317  A    between atoms: _770  and  _771
REMARK  318  A    between atoms: _777  and  _779
REMARK  319  A    between atoms: _779  and  _780
REMARK  320  A    between atoms: _779  and  _782
REMARK  321  A    between atoms: _782  and  _783
REMARK  322  A    between atoms: _785  and  _787
REMARK  323  A    between atoms: _787  and  _788
REMARK  324  A    between atoms: _790  and  _792
REMARK  325  A    between atoms: _792  and  _793
REMARK  326  A    between atoms: _792  and  _795
REMARK  327  A    between atoms: _795  and  _796
REMARK  328  A    between atoms: _801  and  _802
REMARK  329  A    between atoms: _804  and  _806
REMARK  330  A    between atoms: _806  and  _807
REMARK  331  A    between atoms: _806  and  _809
REMARK  332  A    between atoms: _809  and  _810
REMARK  333  A    between atoms: _815  and  _816
REMARK  334  A    between atoms: _818  and  _820
REMARK  335  A    between atoms: _820  and  _821
REMARK  336  A    between atoms: _820  and  _823
REMARK  337  A    between atoms: _823  and  _824
REMARK  338  A    between atoms: _828  and  ZN_938
REMARK  339  A    between atoms: _829  and  _831
REMARK  340  A    between atoms: _831  and  _832
REMARK  341  A    between atoms: _831  and  _834
REMARK  342  A    between atoms: _834  and  _835
REMARK  343  A    between atoms: _835  and  _836
REMARK  344  A    between atoms: _839  and  _841
REMARK  345  A    between atoms: _841  and  _842
REMARK  346  A    between atoms: _841  and  _844
REMARK  347  A    between atoms: _844  and  _845
REMARK  348  A    between atoms: _845  and  _846
REMARK  349  A    between atoms: _846  and  _847
REMARK  350  A    between atoms: _856  and  _858
REMARK  351  A    between atoms: _858  and  _859
REMARK  352  A    between atoms: _858  and  _861
REMARK  353  A    between atoms: _861  and  _862
REMARK  354  A    between atoms: _867  and  _868
REMARK  355  A    between atoms: _870  and  _872
REMARK  356  A    between atoms: _872  and  _873
REMARK  357  A    between atoms: _872  and  _875
REMARK  358  A    between atoms: _875  and  _876
REMARK  359  A    between atoms: _878  and  _880
REMARK  360  A    between atoms: _880  and  _881
REMARK  361  A    between atoms: _880  and  _883
REMARK  362  A    between atoms: _883  and  _884
REMARK  363  A    between atoms: _889  and  _891
REMARK  364  A    between atoms: _891  and  _892
REMARK  365  A    between atoms: _891  and  _894
REMARK  366  A    between atoms: _894  and  _895
REMARK  367  A    between atoms: _900  and  _902
REMARK  368  A    between atoms: _902  and  _903
REMARK  369  A    between atoms: _902  and  _905
REMARK  370  A    between atoms: _905  and  _906
REMARK  371  A    between atoms: _906  and  _907
REMARK  372  A    between atoms: _907  and  _908
REMARK  373  A    between atoms: _908  and  _909
REMARK  374  A    between atoms: _913  and  _915
REMARK  375  A    between atoms: _915  and  _916
REMARK  376  A    between atoms: _915  and  _918
REMARK  377  A    between atoms: _918  and  _919
REMARK  378  A    between atoms: _924  and  _925
REMARK  379  A    between atoms: _927  and  _929
REMARK  380  A    between atoms: _929  and  _930
REMARK  381  A    between atoms: _933  and  _935
REMARK  382  A    between atoms: _935  and  _936
REMARK                            x       y       z     vdW  Elec       q    Type
REMARK                         _______ _______ _______ _____ _____    ______ ____
ROOT
ATOM      1  CG  LYS A   1      22.195  48.614  30.393  0.00  0.00    -0.000 C 
ENDROOT
BRANCH   1   2
ATOM      2  CB  LYS A   1      21.081  48.493  29.338  0.00  0.00    +0.025 C 
BRANCH   2   3
ATOM      3  CA  LYS A   1      20.307  49.786  29.051  0.00  0.00    +0.133 C 
BRANCH   3   4
ATOM      4  N   LYS A   1      19.668  50.296  30.260  0.00  0.00    -0.239 NA
ATOM      5  H   LYS A   1      19.785  49.796  31.164  0.00  0.00    +0.142 HD
ENDBRANCH   3   4
BRANCH   3   6
ATOM      6  C   LYS A   1      19.311  49.523  27.952  0.00  0.00    +0.224 C 
ATOM      7  O   LYS A   1      19.560  49.864  26.758  0.00  0.00    -0.287 OA
ENDBRANCH   3   6
ENDBRANCH   2   3
ENDBRANCH   1   2
BRANCH   1   8
ATOM      8  CD  LYS A   1      22.809  47.234  30.585  0.00  0.00    -0.024 C 
BRANCH   8   9
ATOM      9  CE  LYS A   1      23.742  47.217  31.779  0.00  0.00    -0.086 C 
BRANCH   9  10
ATOM     10  NZ  LYS A   1      25.210  47.543  31.517  0.00  0.00    +0.380 N 
ATOM     11  HZ1 LYS A   1      25.739  47.498  32.411  0.00  0.00    -0.089 HD
ATOM     12  HZ2 LYS A   1      25.285  48.500  31.117  0.00  0.00    -0.089 HD
ATOM     13  HZ3 LYS A   1      25.603  46.853  30.845  0.00  0.00    -0.089 HD
ENDBRANCH   9  10
ENDBRANCH   8   9
ENDBRANCH   1   8
TORSDOF 7
REMARK  Name = ../refined-set-2016/2xeg/2xeg_pocket.pdb
REMARK  382 active torsions:
REMARK  status: ('A' for Active; 'I' for Inactive)
REMARK    1  A    between atoms: _1  and  _3
REMARK    2  A    between atoms: _3  and  _4
REMARK    3  A    between atoms: _7  and  _9
REMARK    4  A    between atoms: _9  and  _10
REMARK    5  A    between atoms: _9  and  _12
REMARK    6  A    between atoms: _12  and  _13
REMARK    7  A    between atoms: _19  and  _21
REMARK    8  A    between atoms: _21  and  _22
REMARK    9  A    between atoms: _21  and  _24
REMARK   10  A    between atoms: _24  and  _25
REMARK   11  A    between atoms: _30  and  _31
REMARK   12  A    between atoms: _33  and  _35
REMARK   13  A    between atoms: _35  and  _36
REMARK   14  A    between atoms: _38  and  _40
REMARK   15  A    between atoms: _40  and  _41
REMARK   16  A    between atoms: _40  and  _43
REMARK   17  A    between atoms: _43  and  _44
REMARK   18  A    between atoms: _44  and  _45
REMARK   19  A    between atoms: _45  and  _46
REMARK   20  A    between atoms: _46  and  _47
REMARK   21  A    between atoms: _51  and  _53
REMARK   22  A    between atoms: _53  and  _54
REMARK   23  A    between atoms: _53  and  _56
REMARK   24  A    between atoms: _59  and  _61
REMARK   25  A    between atoms: _61  and  _62
REMARK   26  A    between atoms: _61  and  _64
REMARK   27  A    between atoms: _64  and  _65
REMARK   28  A    between atoms: _71  and  _73
REMARK   29  A    between atoms: _73  and  _74
REMARK   30  A    between atoms: _73  and  _76
REMARK   31  A    between atoms: _76  and  _77
REMARK   32  A    between atoms: _77  and  _78
REMARK   33  A    between atoms: _78  and  _79
REMARK   34  A    between atoms: _88  and  _90
REMARK   35  A    between atoms: _90  and  _91
REMARK   36  A    between atoms: _93  and  _95
REMARK   37  A    between atoms: _95  and  _96
REMARK   38  A    between atoms: _95  and  _98
REMARK   39  A    between atoms: _98  and  _99
REMARK   40  A    between atoms: _99  and  _100
REMARK   41  A    between atoms: _100  and  _101
REMARK   42  A    between atoms: _101  and  _102
REMARK   43  A    between atoms: _106  and  _108
REMARK   44  A    between atoms: _108  and  _109
REMARK   45  A    between atoms: _108  and  _111
REMARK   46  A    between atoms: _111  and  _112
REMARK   47  A    between atoms: _115  and  _117
REMARK   48  A    between atoms: _117  and  _118
REMARK   49  A    between atoms: _117  and  _120
REMARK   50  A    between atoms: _120  and  _121
REMARK   51  A    between atoms: _126  and  _127
REMARK   52  A    between atoms: _129  and  _131
REMARK   53  A    between atoms: _131  and  _132
REMARK   54  A    between atoms: _131  and  _134
REMARK   55  A    between atoms: _134  and  _135
REMARK   56  A    between atoms: _135  and  _136
REMARK   57  A    between atoms: _141  and  _143
REMARK   58  A    between atoms: _143  and  _144
REMARK   59  A    between atoms: _143  and  _146
REMARK   60  A    between atoms: _146  and  _147
REMARK   61  A    between atoms: _147  and  _148
REMARK   62  A    between atoms: _148  and  _149
REMARK   63  A    between atoms: _158  and  _160
REMARK   64  A    between atoms: _160  and  _161
REMARK   65  A    between atoms: _163  and  _165
REMARK   66  A    between atoms: _165  and  _166
REMARK   67  A    between atoms: _165  and  _168
REMARK   68  A    between atoms: _168  and  _169
REMARK   69  A    between atoms: _174  and  _176
REMARK   70  A    between atoms: _176  and  _177
REMARK   71  A    between atoms: _176  and  _179
REMARK   72  A    between atoms: _179  and  _180
REMARK   73  A    between atoms: _183  and  _185
REMARK   74  A    between atoms: _185  and  _186
REMARK   75  A    between atoms: _185  and  _188
REMARK   76  A    between atoms: _188  and  _189
REMARK   77  A    between atoms: _192  and  _194
REMARK   78  A    between atoms: _194  and  _195
REMARK   79  A    between atoms: _194  and  _197
REMARK   80  A    between atoms: _197  and  _198
REMARK   81  A    between atoms: _203  and  _205
REMARK   82  A    between atoms: _205  and  _206
REMARK   83  A    between atoms: _205  and  _208
REMARK   84  A    between atoms: _208  and  _209
REMARK   85  A    between atoms: _212  and  _214
REMARK   86  A    between atoms: _214  and  _215
REMARK   87  A    between atoms: _214  and  _217
REMARK   88  A    between atoms: _217  and  _218
REMARK   89  A    between atoms: _223  and  _225
REMARK   90  A    between atoms: _225  and  _226
REMARK   91  A    between atoms: _228  and  _230
REMARK   92  A    between atoms: _230  and  _231
REMARK   93  A    between atoms: _230  and  _233
REMARK   94  A    between atoms: _233  and  _234
REMARK   95  A    between atoms: _238  and  ZN_939
REMARK   96  A    between atoms: _239  and  _241
REMARK   97  A    between atoms: _241  and  _242
REMARK   98  A    between atoms: _241  and  _244
REMARK   99  A    between atoms: _244  and  _245
REMARK  100  A    between atoms: _248  and  _250
REMARK  101  A    between atoms: _250  and  _251
REMARK  102  A    between atoms: _250  and  _253
REMARK  103  A    between atoms: _253  and  _254
REMARK  104  A    between atoms: _264  and  _266
REMARK  105  A    between atoms: _266  and  _267
REMARK  106  A    between atoms: _266  and  _269
REMARK  107  A    between atoms: _269  and  _270
REMARK  108  A    between atoms: _273  and  _275
REMARK  109  A    between atoms: _275  and  _276
REMARK  110  A    between atoms: _275  and  _278
REMARK  111  A    between atoms: _278  and  _279
REMARK  112  A    between atoms: _279  and  _280
REMARK  113  A    between atoms: _279  and  _281
REMARK  114  A    between atoms: _280  and  ZN_939
REMARK  115  A    between atoms: _281  and  ZN_938
REMARK  116  A    between atoms: _283  and  _284
REMARK  117  A    between atoms: _289  and  _291
REMARK  118  A    between atoms: _291  and  _292
REMARK  119  A    between atoms: _295  and  _297
REMARK  120  A    between atoms: _297  and  _298
REMARK  121  A    between atoms: _297  and  _300
REMARK  122  A    between atoms: _300  and  _301
REMARK  123  A    between atoms: _301  and  _302
REMARK  124  A    between atoms: _305  and  _307
REMARK  125  A    between atoms: _307  and  _308
REMARK  126  A    between atoms: _307  and  _310
REMARK  127  A    between atoms: _310  and  _311
REMARK  128  A    between atoms: _311  and  _312
REMARK  129  A    between atoms: _312  and  _314
REMARK  130  A    between atoms: _314  and  ZN_938
REMARK  131  A    between atoms: _315  and  _317
REMARK  132  A    between atoms: _317  and  _318
REMARK  133  A    between atoms: _317  and  _320
REMARK  134  A    between atoms: _320  and  _321
REMARK  135  A    between atoms: _327  and  _329
REMARK  136  A    between atoms: _329  and  _330
REMARK  137  A    between atoms: _332  and  _334
REMARK  138  A    between atoms: _334  and  _335
REMARK  139  A    between atoms: _334  and  _337
REMARK  140  A    between atoms: _337  and  _338
REMARK  141  A    between atoms: _341  and  _343
REMARK  142  A    between atoms: _343  and  _344
REMARK  143  A    between atoms: _343  and  _346
REMARK  144  A    between atoms: _346  and  _347
REMARK  145  A    between atoms: _350  and  _352
REMARK  146  A    between atoms: _352  and  _353
REMARK  147  A    between atoms: _352  and  _355
REMARK  148  A    between atoms: _355  and  _356
REMARK  149  A    between atoms: _361  and  _363
REMARK  150  A    between atoms: _363  and  _364
REMARK  151  A    between atoms: _363  and  _366
REMARK  152  A    between atoms: _366  and  _367
REMARK  153  A    between atoms: _367  and  _369
REMARK  154  A    between atoms: _369  and  ZN_939
REMARK  155  A    between atoms: _370  and  _372
REMARK  156  A    between atoms: _372  and  _373
REMARK  157  A    between atoms: _372  and  _375
REMARK  158  A    between atoms: _375  and  _376
REMARK  159  A    between atoms: _378  and  _380
REMARK  160  A    between atoms: _380  and  _381
REMARK  161  A    between atoms: _380  and  _383
REMARK  162  A    between atoms: _383  and  _384
REMARK  163  A    between atoms: _386  and  _388
REMARK  164  A    between atoms: _388  and  _389
REMARK  165  A    between atoms: _388  and  _391
REMARK  166  A    between atoms: _391  and  _392
REMARK  167  A    between atoms: _395  and  _397
REMARK  168  A    between atoms: _397  and  _398
REMARK  169  A    between atoms: _397  and  _400
REMARK  170  A    between atoms: _400  and  _401
REMARK  171  A    between atoms: _401  and  _402
REMARK  172  A    between atoms: _405  and  _407
REMARK  173  A    between atoms: _407  and  _408
REMARK  174  A    between atoms: _407  and  _410
REMARK  175  A    between atoms: _410  and  _411
REMARK  176  A    between atoms: _416  and  _417
REMARK  177  A    between atoms: _419  and  _421
REMARK  178  A    between atoms: _421  and  _422
REMARK  179  A    between atoms: _421  and  _424
REMARK  180  A    between atoms: _424  and  _425
REMARK  181  A    between atoms: _428  and  _430
REMARK  182  A    between atoms: _430  and  _431
REMARK  183  A    between atoms: _430  and  _433
REMARK  184  A    between atoms: _433  and  _434
REMARK  185  A    between atoms: _437  and  _439
REMARK  186  A    between atoms: _439  and  _440
REMARK  187  A    between atoms: _439  and  _442
REMARK  188  A    between atoms: _442  and  _443
REMARK  189  A    between atoms: _443  and  _444
REMARK  190  A    between atoms: _444  and  _445
REMARK  191  A    between atoms: _454  and  _456
REMARK  192  A    between atoms: _456  and  _457
REMARK  193  A    between atoms: _456  and  _459
REMARK  194  A    between atoms: _462  and  _464
REMARK  195  A    between atoms: _464  and  _465
REMARK  196  A    between atoms: _464  and  _467
REMARK  197  A    between atoms: _467  and  _468
REMARK  198  A    between atoms: _471  and  _473
REMARK  199  A    between atoms: _473  and  _474
REMARK  200  A    between atoms: _473  and  _476
REMARK  201  A    between atoms: _476  and  _477
REMARK  202  A    between atoms: _487  and  _489
REMARK  203  A    between atoms: _489  and  _490
REMARK  204  A    between atoms: _489  and  _492
REMARK  205  A    between atoms: _492  and  _493
REMARK  206  A    between atoms: _493  and  _494
REMARK  207  A    between atoms: _494  and  _495
REMARK  208  A    between atoms: _495  and  _496
REMARK  209  A    between atoms: _500  and  _502
REMARK  210  A    between atoms: _502  and  _503
REMARK  211  A    between atoms: _502  and  _505
REMARK  212  A    between atoms: _505  and  _506
REMARK  213  A    between atoms: _509  and  _510
REMARK  214  A    between atoms: _516  and  _517
REMARK  215  A    between atoms: _522  and  _524
REMARK  216  A    between atoms: _524  and  _525
REMARK  217  A    between atoms: _524  and  _527
REMARK  218  A    between atoms: _527  and  _528
REMARK  219  A    between atoms: _528  and  _529
REMARK  220  A    between atoms: _529  and  _530
REMARK  221  A    between atoms: _539  and  _541
REMARK  222  A    between atoms: _541  and  _542
REMARK  223  A    between atoms: _541  and  _544
REMARK  224  A    between atoms: _544  and  _545
REMARK  225  A    between atoms: _548  and  _550
REMARK  226  A    between atoms: _550  and  _551
REMARK  227  A    between atoms: _550  and  _553
REMARK  228  A    between atoms: _553  and  _554
REMARK  229  A    between atoms: _556  and  _558
REMARK  230  A    between atoms: _558  and  _559
REMARK  231  A    between atoms: _558  and  _561
REMARK  232  A    between atoms: _561  and  _562
REMARK  233  A    between atoms: _562  and  _563
REMARK  234  A    between atoms: _563  and  _564
REMARK  235  A    between atoms: _564  and  _565
REMARK  236  A    between atoms: _569  and  _571
REMARK  237  A    between atoms: _571  and  _572
REMARK  238  A    between atoms: _571  and  _574
REMARK  239  A    between atoms: _574  and  _575
REMARK  240  A    between atoms: _578  and  _580
REMARK  241  A    between atoms: _580  and  _581
REMARK  242  A    between atoms: _583  and  _585
REMARK  243  A    between atoms: _585  and  _586
REMARK  244  A    between atoms: _585  and  _588
REMARK  245  A    between atoms: _588  and  _589
REMARK  246  A    between atoms: _591  and  _593
REMARK  247  A    between atoms: _593  and  _594
REMARK  248  A    between atoms: _596  and  _598
REMARK  249  A    between atoms: _598  and  _599
REMARK  250  A    between atoms: _598  and  _601
REMARK  251  A    between atoms: _601  and  _602
REMARK  252  A    between atoms: _607  and  _609
REMARK  253  A    between atoms: _609  and  _610
REMARK  254  A    between atoms: _609  and  _612
REMARK  255  A    between atoms: _612  and  _613
REMARK  256  A    between atoms: _616  and  _618
REMARK  257  A    between atoms: _618  and  _619
REMARK  258  A    between atoms: _618  and  _621
REMARK  259  A    between atoms: _621  and  _622
REMARK  260  A    between atoms: _628  and  _630
REMARK  261  A    between atoms: _630  and  _631
REMARK  262  A    between atoms: _630  and  _633
REMARK  263  A    between atoms: _633  and  _634
REMARK  264  A    between atoms: _634  and  _635
REMARK  265  A    between atoms: _638  and  _640
REMARK  266  A    between atoms: _640  and  _641
REMARK  267  A    between atoms: _640  and  _643
REMARK  268  A    between atoms: _643  and  _644
REMARK  269  A    between atoms: _644  and  _645
REMARK  270  A    between atoms: _645  and  _646
REMARK  271  A    between atoms: _655  and  _657
REMARK  272  A    between atoms: _657  and  _658
REMARK  273  A    between atoms: _657  and  _660
REMARK  274  A    between atoms: _660  and  _661
REMARK  275  A    between atoms: _661  and  _662
REMARK  276  A    between atoms: _662  and  _663
REMARK  277  A    between atoms: _672  and  _674
REMARK  278  A    between atoms: _674  and  _675
REMARK  279  A    between atoms: _674  and  _677
REMARK  280  A    between atoms: _677  and  _678
REMARK  281  A    between atoms: _683  and  _684
REMARK  282  A    between atoms: _686  and  _688
REMARK  283  A    between atoms: _688  and  _689
REMARK  284  A    between atoms: _688  and  _691
REMARK  285  A    between atoms: _691  and  _692
REMARK  286  A    between atoms: _695  and  _697
REMARK  287  A    between atoms: _697  and  _698
REMARK  288  A    between atoms: _697  and  _700
REMARK  289  A    between atoms: _700  and  _701
REMARK  290  A    between atoms: _701  and  _702
REMARK  291  A    between atoms: _702  and  _703
REMARK  292  A    between atoms: _703  and  _704
REMARK  293  A    between atoms: _708  and  _710
REMARK  294  A    between atoms: _710  and  _711
REMARK  295  A    between atoms: _710  and  _713
REMARK  296  A    between atoms: _713  and  _714
REMARK  297  A    between atoms: _719  and  _721
REMARK  298  A    between atoms: _721  and  _722
REMARK  299  A    between atoms: _721  and  _724
REMARK  300  A    between atoms: _724  and  _725
REMARK  301  A    between atoms: _735  and  _737
REMARK  302  A    between atoms: _737  and  _738
REMARK  303  A    between atoms: _737  and  _740
REMARK  304  A    between atoms: _740  and  _741
REMARK  305  A    between atoms: _741  and  _742
REMARK  306  A    between atoms: _745  and  _747
REMARK  307  A    between atoms: _747  and  _748
REMARK  308  A    between atoms: _747  and  _750
REMARK  309  A    between atoms: _750  and  _751
REMARK  310  A    between atoms: _754  and  _756
REMARK  311  A    between atoms: _756  and  _757
REMARK  312  A    between atoms: _756  and  _759
REMARK  313  A    between atoms: _759  and  _760
REMARK  314  A    between atoms: _765  and  _767
REMARK  315  A    between atoms: _767  and  _768
REMARK  316  A    between atoms: _767  and  _770
REMARK  317  A    between atoms: _770  and  _771
REMARK  318  A    between atoms: _777  and  _779
REMARK  319  A    between atoms: _779  and  _780
REMARK  320  A    between atoms: _779  and  _782
REMARK  321  A    between atoms: _782  and  _783
REMARK  322  A    between atoms: _785  and  _787
REMARK  323  A    between atoms: _787  and  _788
REMARK  324  A    between atoms: _790  and  _792
REMARK  325  A    between atoms: _792  and  _793
REMARK  326  A    between atoms: _792  and  _795
REMARK  327  A    between atoms: _795  and  _796
REMARK  328  A    between atoms: _801  and  _802
REMARK  329  A    between atoms: _804  and  _806
REMARK  330  A    between atoms: _806  and  _807
REMARK  331  A    between atoms: _806  and  _809
REMARK  332  A    between atoms: _809  and  _810
REMARK  333  A    between atoms: _815  and  _816
REMARK  334  A    between atoms: _818  and  _820
REMARK  335  A    between atoms: _820  and  _821
REMARK  336  A    between atoms: _820  and  _823
REMARK  337  A    between atoms: _823  and  _824
REMARK  338  A    between atoms: _828  and  ZN_938
REMARK  339  A    between atoms: _829  and  _831
REMARK  340  A    between atoms: _831  and  _832
REMARK  341  A    between atoms: _831  and  _834
REMARK  342  A    between atoms: _834  and  _835
REMARK  343  A    between atoms: _835  and  _836
REMARK  344  A    between atoms: _839  and  _841
REMARK  345  A    between atoms: _841  and  _842
REMARK  346  A    between atoms: _841  and  _844
REMARK  347  A    between atoms: _844  and  _845
REMARK  348  A    between atoms: _845  and  _846
REMARK  349  A    between atoms: _846  and  _847
REMARK  350  A    between atoms: _856  and  _858
REMARK  351  A    between atoms: _858  and  _859
REMARK  352  A    between atoms: _858  and  _861
REMARK  353  A    between atoms: _861  and  _862
REMARK  354  A    between atoms: _867  and  _868
REMARK  355  A    between atoms: _870  and  _872
REMARK  356  A    between atoms: _872  and  _873
REMARK  357  A    between atoms: _872  and  _875
REMARK  358  A    between atoms: _875  and  _876
REMARK  359  A    between atoms: _878  and  _880
REMARK  360  A    between atoms: _880  and  _881
REMARK  361  A    between atoms: _880  and  _883
REMARK  362  A    between atoms: _883  and  _884
REMARK  363  A    between atoms: _889  and  _891
REMARK  364  A    between atoms: _891  and  _892
REMARK  365  A    between atoms: _891  and  _894
REMARK  366  A    between atoms: _894  and  _895
REMARK  367  A    between atoms: _900  and  _902
REMARK  368  A    between atoms: _902  and  _903
REMARK  369  A    between atoms: _902  and  _905
REMARK  370  A    between atoms: _905  and  _906
REMARK  371  A    between atoms: _906  and  _907
REMARK  372  A    between atoms: _907  and  _908
REMARK  373  A    between atoms: _908  and  _909
REMARK  374  A    between atoms: _913  and  _915
REMARK  375  A    between atoms: _915  and  _916
REMARK  376  A    between atoms: _915  and  _918
REMARK  377  A    between atoms: _918  and  _919
REMARK  378  A    between atoms: _924  and  _925
REMARK  379  A    between atoms: _927  and  _929
REMARK  380  A    between atoms: _929  and  _930
REMARK  381  A    between atoms: _933  and  _935
REMARK  382  A    between atoms: _935  and  _936
REMARK                            x       y       z     vdW  Elec       q    Type
REMARK                         _______ _______ _______ _____ _____    ______ ____
ROOT
ATOM      1  CA  TYR A   2      31.972  39.633  37.287  0.00  0.00    +0.141 C 
ENDROOT
BRANCH   1   4
ATOM      2  C   ASP A   1      32.326  41.958  36.658  0.00  0.00    +0.239 C 
ATOM      3  O   ASP A   1      31.706  42.343  37.665  0.00  0.00    -0.274 OA
ATOM      4  N   TYR A   2      32.539  40.665  36.419  0.00  0.00    -0.298 N 
ATOM      5  H   TYR A   2      33.118  40.385  35.602  0.00  0.00    +0.150 HD
BRANCH   2   6
ATOM      6  CA  ASP A   1      32.871  42.976  35.666  0.00  0.00    +0.156 C 
BRANCH   6   7
ATOM      7  N   ASP A   1      33.808  42.355  34.724  0.00  0.00    -0.238 NA
ATOM      8  H   ASP A   1      33.434  41.703  34.005  0.00  0.00    +0.142 HD
ENDBRANCH   6   7
BRANCH   6   9
ATOM      9  CB  ASP A   1      31.719  43.551  34.839  0.00  0.00    +0.140 C 
BRANCH   9  10
ATOM     10  CG  ASP A   1      32.218  44.506  33.759  0.00  0.00    +0.367 C 
ATOM     11  OD2 ASP A   1      32.680  45.607  34.143  0.00  0.00    -0.246 OA
ATOM     12  OD1 ASP A   1      32.163  44.140  32.547  0.00  0.00    -0.246 OA
ENDBRANCH   9  10
ENDBRANCH   6   9
ENDBRANCH   2   6
ENDBRANCH   1   4
BRANCH   1  13
ATOM     13  C   TYR A   2      32.934  38.495  37.656  0.00  0.00    +0.227 C 
ATOM     14  O   TYR A   2      32.489  37.425  38.095  0.00  0.00    -0.286 OA
ENDBRANCH   1  13
BRANCH   1  15
ATOM     15  CB  TYR A   2      30.694  39.049  36.650  0.00  0.00    +0.054 C 
BRANCH  15  16
ATOM     16  CG  TYR A   2      29.628  40.129  36.541  0.00  0.00    -0.020 A 
ATOM     17  CD2 TYR A   2      28.819  40.449  37.645  0.00  0.00    -0.001 A 
ATOM     18  CE2 TYR A   2      27.874  41.470  37.580  0.00  0.00    +0.036 A 
ATOM     19  CZ  TYR A   2      27.741  42.197  36.401  0.00  0.00    +0.134 A 
ATOM     20  CE1 TYR A   2      28.546  41.948  35.299  0.00  0.00    +0.036 A 
ATOM     21  CD1 TYR A   2      29.499  40.892  35.366  0.00  0.00    -0.001 A 
BRANCH  19  22
ATOM     22  OH  TYR A   2      26.842  43.215  36.327  0.00  0.00    -0.506 OA
ATOM     23  HH  TYR A   2      25.932  42.863  36.496  0.00  0.00    +0.292 HD
ENDBRANCH  19  22
ENDBRANCH  15  16
ENDBRANCH   1  15
TORSDOF 9
REMARK  Name = ../refined-set-2016/2xeg/2xeg_pocket.pdb
REMARK  382 active torsions:
REMARK  status: ('A' for Active; 'I' for Inactive)
REMARK    1  A    between atoms: _1  and  _3
REMARK    2  A    between atoms: _3  and  _4
REMARK    3  A    between atoms: _7  and  _9
REMARK    4  A    between atoms: _9  and  _10
REMARK    5  A    between atoms: _9  and  _12
REMARK    6  A    between atoms: _12  and  _13
REMARK    7  A    between atoms: _19  and  _21
REMARK    8  A    between atoms: _21  and  _22
REMARK    9  A    between atoms: _21  and  _24
REMARK   10  A    between atoms: _24  and  _25
REMARK   11  A    between atoms: _30  and  _31
REMARK   12  A    between atoms: _33  and  _35
REMARK   13  A    between atoms: _35  and  _36
REMARK   14  A    between atoms: _38  and  _40
REMARK   15  A    between atoms: _40  and  _41
REMARK   16  A    between atoms: _40  and  _43
REMARK   17  A    between atoms: _43  and  _44
REMARK   18  A    between atoms: _44  and  _45
REMARK   19  A    between atoms: _45  and  _46
REMARK   20  A    between atoms: _46  and  _47
REMARK   21  A    between atoms: _51  and  _53
REMARK   22  A    between atoms: _53  and  _54
REMARK   23  A    between atoms: _53  and  _56
REMARK   24  A    between atoms: _59  and  _61
REMARK   25  A    between atoms: _61  and  _62
REMARK   26  A    between atoms: _61  and  _64
REMARK   27  A    between atoms: _64  and  _65
REMARK   28  A    between atoms: _71  and  _73
REMARK   29  A    between atoms: _73  and  _74
REMARK   30  A    between atoms: _73  and  _76
REMARK   31  A    between atoms: _76  and  _77
REMARK   32  A    between atoms: _77  and  _78
REMARK   33  A    between atoms: _78  and  _79
REMARK   34  A    between atoms: _88  and  _90
REMARK   35  A    between atoms: _90  and  _91
REMARK   36  A    between atoms: _93  and  _95
REMARK   37  A    between atoms: _95  and  _96
REMARK   38  A    between atoms: _95  and  _98
REMARK   39  A    between atoms: _98  and  _99
REMARK   40  A    between atoms: _99  and  _100
REMARK   41  A    between atoms: _100  and  _101
REMARK   42  A    between atoms: _101  and  _102
REMARK   43  A    between atoms: _106  and  _108
REMARK   44  A    between atoms: _108  and  _109
REMARK   45  A    between atoms: _108  and  _111
REMARK   46  A    between atoms: _111  and  _112
REMARK   47  A    between atoms: _115  and  _117
REMARK   48  A    between atoms: _117  and  _118
REMARK   49  A    between atoms: _117  and  _120
REMARK   50  A    between atoms: _120  and  _121
REMARK   51  A    between atoms: _126  and  _127
REMARK   52  A    between atoms: _129  and  _131
REMARK   53  A    between atoms: _131  and  _132
REMARK   54  A    between atoms: _131  and  _134
REMARK   55  A    between atoms: _134  and  _135
REMARK   56  A    between atoms: _135  and  _136
REMARK   57  A    between atoms: _141  and  _143
REMARK   58  A    between atoms: _143  and  _144
REMARK   59  A    between atoms: _143  and  _146
REMARK   60  A    between atoms: _146  and  _147
REMARK   61  A    between atoms: _147  and  _148
REMARK   62  A    between atoms: _148  and  _149
REMARK   63  A    between atoms: _158  and  _160
REMARK   64  A    between atoms: _160  and  _161
REMARK   65  A    between atoms: _163  and  _165
REMARK   66  A    between atoms: _165  and  _166
REMARK   67  A    between atoms: _165  and  _168
REMARK   68  A    between atoms: _168  and  _169
REMARK   69  A    between atoms: _174  and  _176
REMARK   70  A    between atoms: _176  and  _177
REMARK   71  A    between atoms: _176  and  _179
REMARK   72  A    between atoms: _179  and  _180
REMARK   73  A    between atoms: _183  and  _185
REMARK   74  A    between atoms: _185  and  _186
REMARK   75  A    between atoms: _185  and  _188
REMARK   76  A    between atoms: _188  and  _189
REMARK   77  A    between atoms: _192  and  _194
REMARK   78  A    between atoms: _194  and  _195
REMARK   79  A    between atoms: _194  and  _197
REMARK   80  A    between atoms: _197  and  _198
REMARK   81  A    between atoms: _203  and  _205
REMARK   82  A    between atoms: _205  and  _206
REMARK   83  A    between atoms: _205  and  _208
REMARK   84  A    between atoms: _208  and  _209
REMARK   85  A    between atoms: _212  and  _214
REMARK   86  A    between atoms: _214  and  _215
REMARK   87  A    between atoms: _214  and  _217
REMARK   88  A    between atoms: _217  and  _218
REMARK   89  A    between atoms: _223  and  _225
REMARK   90  A    between atoms: _225  and  _226
REMARK   91  A    between atoms: _228  and  _230
REMARK   92  A    between atoms: _230  and  _231
REMARK   93  A    between atoms: _230  and  _233
REMARK   94  A    between atoms: _233  and  _234
REMARK   95  A    between atoms: _238  and  ZN_939
REMARK   96  A    between atoms: _239  and  _241
REMARK   97  A    between atoms: _241  and  _242
REMARK   98  A    between atoms: _241  and  _244
REMARK   99  A    between atoms: _244  and  _245
REMARK  100  A    between atoms: _248  and  _250
REMARK  101  A    between atoms: _250  and  _251
REMARK  102  A    between atoms: _250  and  _253
REMARK  103  A    between atoms: _253  and  _254
REMARK  104  A    between atoms: _264  and  _266
REMARK  105  A    between atoms: _266  and  _267
REMARK  106  A    between atoms: _266  and  _269
REMARK  107  A    between atoms: _269  and  _270
REMARK  108  A    between atoms: _273  and  _275
REMARK  109  A    between atoms: _275  and  _276
REMARK  110  A    between atoms: _275  and  _278
REMARK  111  A    between atoms: _278  and  _279
REMARK  112  A    between atoms: _279  and  _280
REMARK  113  A    between atoms: _279  and  _281
REMARK  114  A    between atoms: _280  and  ZN_939
REMARK  115  A    between atoms: _281  and  ZN_938
REMARK  116  A    between atoms: _283  and  _284
REMARK  117  A    between atoms: _289  and  _291
REMARK  118  A    between atoms: _291  and  _292
REMARK  119  A    between atoms: _295  and  _297
REMARK  120  A    between atoms: _297  and  _298
REMARK  121  A    between atoms: _297  and  _300
REMARK  122  A    between atoms: _300  and  _301
REMARK  123  A    between atoms: _301  and  _302
REMARK  124  A    between atoms: _305  and  _307
REMARK  125  A    between atoms: _307  and  _308
REMARK  126  A    between atoms: _307  and  _310
REMARK  127  A    between atoms: _310  and  _311
REMARK  128  A    between atoms: _311  and  _312
REMARK  129  A    between atoms: _312  and  _314
REMARK  130  A    between atoms: _314  and  ZN_938
REMARK  131  A    between atoms: _315  and  _317
REMARK  132  A    between atoms: _317  and  _318
REMARK  133  A    between atoms: _317  and  _320
REMARK  134  A    between atoms: _320  and  _321
REMARK  135  A    between atoms: _327  and  _329
REMARK  136  A    between atoms: _329  and  _330
REMARK  137  A    between atoms: _332  and  _334
REMARK  138  A    between atoms: _334  and  _335
REMARK  139  A    between atoms: _334  and  _337
REMARK  140  A    between atoms: _337  and  _338
REMARK  141  A    between atoms: _341  and  _343
REMARK  142  A    between atoms: _343  and  _344
REMARK  143  A    between atoms: _343  and  _346
REMARK  144  A    between atoms: _346  and  _347
REMARK  145  A    between atoms: _350  and  _352
REMARK  146  A    between atoms: _352  and  _353
REMARK  147  A    between atoms: _352  and  _355
REMARK  148  A    between atoms: _355  and  _356
REMARK  149  A    between atoms: _361  and  _363
REMARK  150  A    between atoms: _363  and  _364
REMARK  151  A    between atoms: _363  and  _366
REMARK  152  A    between atoms: _366  and  _367
REMARK  153  A    between atoms: _367  and  _369
REMARK  154  A    between atoms: _369  and  ZN_939
REMARK  155  A    between atoms: _370  and  _372
REMARK  156  A    between atoms: _372  and  _373
REMARK  157  A    between atoms: _372  and  _375
REMARK  158  A    between atoms: _375  and  _376
REMARK  159  A    between atoms: _378  and  _380
REMARK  160  A    between atoms: _380  and  _381
REMARK  161  A    between atoms: _380  and  _383
REMARK  162  A    between atoms: _383  and  _384
REMARK  163  A    between atoms: _386  and  _388
REMARK  164  A    between atoms: _388  and  _389
REMARK  165  A    between atoms: _388  and  _391
REMARK  166  A    between atoms: _391  and  _392
REMARK  167  A    between atoms: _395  and  _397
REMARK  168  A    between atoms: _397  and  _398
REMARK  169  A    between atoms: _397  and  _400
REMARK  170  A    between atoms: _400  and  _401
REMARK  171  A    between atoms: _401  and  _402
REMARK  172  A    between atoms: _405  and  _407
REMARK  173  A    between atoms: _407  and  _408
REMARK  174  A    between atoms: _407  and  _410
REMARK  175  A    between atoms: _410  and  _411
REMARK  176  A    between atoms: _416  and  _417
REMARK  177  A    between atoms: _419  and  _421
REMARK  178  A    between atoms: _421  and  _422
REMARK  179  A    between atoms: _421  and  _424
REMARK  180  A    between atoms: _424  and  _425
REMARK  181  A    between atoms: _428  and  _430
REMARK  182  A    between atoms: _430  and  _431
REMARK  183  A    between atoms: _430  and  _433
REMARK  184  A    between atoms: _433  and  _434
REMARK  185  A    between atoms: _437  and  _439
REMARK  186  A    between atoms: _439  and  _440
REMARK  187  A    between atoms: _439  and  _442
REMARK  188  A    between atoms: _442  and  _443
REMARK  189  A    between atoms: _443  and  _444
REMARK  190  A    between atoms: _444  and  _445
REMARK  191  A    between atoms: _454  and  _456
REMARK  192  A    between atoms: _456  and  _457
REMARK  193  A    between atoms: _456  and  _459
REMARK  194  A    between atoms: _462  and  _464
REMARK  195  A    between atoms: _464  and  _465
REMARK  196  A    between atoms: _464  and  _467
REMARK  197  A    between atoms: _467  and  _468
REMARK  198  A    between atoms: _471  and  _473
REMARK  199  A    between atoms: _473  and  _474
REMARK  200  A    between atoms: _473  and  _476
REMARK  201  A    between atoms: _476  and  _477
REMARK  202  A    between atoms: _487  and  _489
REMARK  203  A    between atoms: _489  and  _490
REMARK  204  A    between atoms: _489  and  _492
REMARK  205  A    between atoms: _492  and  _493
REMARK  206  A    between atoms: _493  and  _494
REMARK  207  A    between atoms: _494  and  _495
REMARK  208  A    between atoms: _495  and  _496
REMARK  209  A    between atoms: _500  and  _502
REMARK  210  A    between atoms: _502  and  _503
REMARK  211  A    between atoms: _502  and  _505
REMARK  212  A    between atoms: _505  and  _506
REMARK  213  A    between atoms: _509  and  _510
REMARK  214  A    between atoms: _516  and  _517
REMARK  215  A    between atoms: _522  and  _524
REMARK  216  A    between atoms: _524  and  _525
REMARK  217  A    between atoms: _524  and  _527
REMARK  218  A    between atoms: _527  and  _528
REMARK  219  A    between atoms: _528  and  _529
REMARK  220  A    between atoms: _529  and  _530
REMARK  221  A    between atoms: _539  and  _541
REMARK  222  A    between atoms: _541  and  _542
REMARK  223  A    between atoms: _541  and  _544
REMARK  224  A    between atoms: _544  and  _545
REMARK  225  A    between atoms: _548  and  _550
REMARK  226  A    between atoms: _550  and  _551
REMARK  227  A    between atoms: _550  and  _553
REMARK  228  A    between atoms: _553  and  _554
REMARK  229  A    between atoms: _556  and  _558
REMARK  230  A    between atoms: _558  and  _559
REMARK  231  A    between atoms: _558  and  _561
REMARK  232  A    between atoms: _561  and  _562
REMARK  233  A    between atoms: _562  and  _563
REMARK  234  A    between atoms: _563  and  _564
REMARK  235  A    between atoms: _564  and  _565
REMARK  236  A    between atoms: _569  and  _571
REMARK  237  A    between atoms: _571  and  _572
REMARK  238  A    between atoms: _571  and  _574
REMARK  239  A    between atoms: _574  and  _575
REMARK  240  A    between atoms: _578  and  _580
REMARK  241  A    between atoms: _580  and  _581
REMARK  242  A    between atoms: _583  and  _585
REMARK  243  A    between atoms: _585  and  _586
REMARK  244  A    between atoms: _585  and  _588
REMARK  245  A    between atoms: _588  and  _589
REMARK  246  A    between atoms: _591  and  _593
REMARK  247  A    between atoms: _593  and  _594
REMARK  248  A    between atoms: _596  and  _598
REMARK  249  A    between atoms: _598  and  _599
REMARK  250  A    between atoms: _598  and  _601
REMARK  251  A    between atoms: _601  and  _602
REMARK  252  A    between atoms: _607  and  _609
REMARK  253  A    between atoms: _609  and  _610
REMARK  254  A    between atoms: _609  and  _612
REMARK  255  A    between atoms: _612  and  _613
REMARK  256  A    between atoms: _616  and  _618
REMARK  257  A    between atoms: _618  and  _619
REMARK  258  A    between atoms: _618  and  _621
REMARK  259  A    between atoms: _621  and  _622
REMARK  260  A    between atoms: _628  and  _630
REMARK  261  A    between atoms: _630  and  _631
REMARK  262  A    between atoms: _630  and  _633
REMARK  263  A    between atoms: _633  and  _634
REMARK  264  A    between atoms: _634  and  _635
REMARK  265  A    between atoms: _638  and  _640
REMARK  266  A    between atoms: _640  and  _641
REMARK  267  A    between atoms: _640  and  _643
REMARK  268  A    between atoms: _643  and  _644
REMARK  269  A    between atoms: _644  and  _645
REMARK  270  A    between atoms: _645  and  _646
REMARK  271  A    between atoms: _655  and  _657
REMARK  272  A    between atoms: _657  and  _658
REMARK  273  A    between atoms: _657  and  _660
REMARK  274  A    between atoms: _660  and  _661
REMARK  275  A    between atoms: _661  and  _662
REMARK  276  A    between atoms: _662  and  _663
REMARK  277  A    between atoms: _672  and  _674
REMARK  278  A    between atoms: _674  and  _675
REMARK  279  A    between atoms: _674  and  _677
REMARK  280  A    between atoms: _677  and  _678
REMARK  281  A    between atoms: _683  and  _684
REMARK  282  A    between atoms: _686  and  _688
REMARK  283  A    between atoms: _688  and  _689
REMARK  284  A    between atoms: _688  and  _691
REMARK  285  A    between atoms: _691  and  _692
REMARK  286  A    between atoms: _695  and  _697
REMARK  287  A    between atoms: _697  and  _698
REMARK  288  A    between atoms: _697  and  _700
REMARK  289  A    between atoms: _700  and  _701
REMARK  290  A    between atoms: _701  and  _702
REMARK  291  A    between atoms: _702  and  _703
REMARK  292  A    between atoms: _703  and  _704
REMARK  293  A    between atoms: _708  and  _710
REMARK  294  A    between atoms: _710  and  _711
REMARK  295  A    between atoms: _710  and  _713
REMARK  296  A    between atoms: _713  and  _714
REMARK  297  A    between atoms: _719  and  _721
REMARK  298  A    between atoms: _721  and  _722
REMARK  299  A    between atoms: _721  and  _724
REMARK  300  A    between atoms: _724  and  _725
REMARK  301  A    between atoms: _735  and  _737
REMARK  302  A    between atoms: _737  and  _738
REMARK  303  A    between atoms: _737  and  _740
REMARK  304  A    between atoms: _740  and  _741
REMARK  305  A    between atoms: _741  and  _742
REMARK  306  A    between atoms: _745  and  _747
REMARK  307  A    between atoms: _747  and  _748
REMARK  308  A    between atoms: _747  and  _750
REMARK  309  A    between atoms: _750  and  _751
REMARK  310  A    between atoms: _754  and  _756
REMARK  311  A    between atoms: _756  and  _757
REMARK  312  A    between atoms: _756  and  _759
REMARK  313  A    between atoms: _759  and  _760
REMARK  314  A    between atoms: _765  and  _767
REMARK  315  A    between atoms: _767  and  _768
REMARK  316  A    between atoms: _767  and  _770
REMARK  317  A    between atoms: _770  and  _771
REMARK  318  A    between atoms: _777  and  _779
REMARK  319  A    between atoms: _779  and  _780
REMARK  320  A    between atoms: _779  and  _782
REMARK  321  A    between atoms: _782  and  _783
REMARK  322  A    between atoms: _785  and  _787
REMARK  323  A    between atoms: _787  and  _788
REMARK  324  A    between atoms: _790  and  _792
REMARK  325  A    between atoms: _792  and  _793
REMARK  326  A    between atoms: _792  and  _795
REMARK  327  A    between atoms: _795  and  _796
REMARK  328  A    between atoms: _801  and  _802
REMARK  329  A    between atoms: _804  and  _806
REMARK  330  A    between atoms: _806  and  _807
REMARK  331  A    between atoms: _806  and  _809
REMARK  332  A    between atoms: _809  and  _810
REMARK  333  A    between atoms: _815  and  _816
REMARK  334  A    between atoms: _818  and  _820
REMARK  335  A    between atoms: _820  and  _821
REMARK  336  A    between atoms: _820  and  _823
REMARK  337  A    between atoms: _823  and  _824
REMARK  338  A    between atoms: _828  and  ZN_938
REMARK  339  A    between atoms: _829  and  _831
REMARK  340  A    between atoms: _831  and  _832
REMARK  341  A    between atoms: _831  and  _834
REMARK  342  A    between atoms: _834  and  _835
REMARK  343  A    between atoms: _835  and  _836
REMARK  344  A    between atoms: _839  and  _841
REMARK  345  A    between atoms: _841  and  _842
REMARK  346  A    between atoms: _841  and  _844
REMARK  347  A    between atoms: _844  and  _845
REMARK  348  A    between atoms: _845  and  _846
REMARK  349  A    between atoms: _846  and  _847
REMARK  350  A    between atoms: _856  and  _858
REMARK  351  A    between atoms: _858  and  _859
REMARK  352  A    between atoms: _858  and  _861
REMARK  353  A    between atoms: _861  and  _862
REMARK  354  A    between atoms: _867  and  _868
REMARK  355  A    between atoms: _870  and  _872
REMARK  356  A    between atoms: _872  and  _873
REMARK  357  A    between atoms: _872  and  _875
REMARK  358  A    between atoms: _875  and  _876
REMARK  359  A    between atoms: _878  and  _880
REMARK  360  A    between atoms: _880  and  _881
REMARK  361  A    between atoms: _880  and  _883
REMARK  362  A    between atoms: _883  and  _884
REMARK  363  A    between atoms: _889  and  _891
REMARK  364  A    between atoms: _891  and  _892
REMARK  365  A    between atoms: _891  and  _894
REMARK  366  A    between atoms: _894  and  _895
REMARK  367  A    between atoms: _900  and  _902
REMARK  368  A    between atoms: _902  and  _903
REMARK  369  A    between atoms: _902  and  _905
REMARK  370  A    between atoms: _905  and  _906
REMARK  371  A    between atoms: _906  and  _907
REMARK  372  A    between atoms: _907  and  _908
REMARK  373  A    between atoms: _908  and  _909
REMARK  374  A    between atoms: _913  and  _915
REMARK  375  A    between atoms: _915  and  _916
REMARK  376  A    between atoms: _915  and  _918
REMARK  377  A    between atoms: _918  and  _919
REMARK  378  A    between atoms: _924  and  _925
REMARK  379  A    between atoms: _927  and  _929
REMARK  380  A    between atoms: _929  and  _930
REMARK  381  A    between atoms: _933  and  _935
REMARK  382  A    between atoms: _935  and  _936
REMARK                            x       y       z     vdW  Elec       q    Type
REMARK                         _______ _______ _______ _____ _____    ______ ____
ROOT
ATOM      1  CA  ILE A   5      14.092  45.205  32.344  0.00  0.00    +0.149 C 
ENDROOT
BRANCH   1   2
ATOM      2  C   ILE A   5      13.049  46.306  32.150  0.00  0.00    +0.241 C 
ATOM      3  N   LEU A   6      12.237  46.538  33.184  0.00  0.00    -0.297 N 
ATOM      4  H   LEU A   6      12.332  45.963  34.045  0.00  0.00    +0.150 HD
ATOM      5  O   ILE A   5      12.998  46.944  31.078  0.00  0.00    -0.273 OA
BRANCH   3   6
ATOM      6  CA  LEU A   6      11.218  47.583  33.130  0.00  0.00    +0.149 C 
BRANCH   6   7
ATOM      7  C   LEU A   6      11.838  48.951  33.354  0.00  0.00    +0.241 C 
ATOM      8  O   LEU A   6      12.930  49.087  33.925  0.00  0.00    -0.273 OA
ATOM      9  N   ASN A   7      11.062  49.982  32.965  0.00  0.00    -0.297 N 
ATOM     10  H   ASN A   7      10.208  49.775  32.409  0.00  0.00    +0.150 HD
BRANCH   9  11
ATOM     11  CA  ASN A   7      11.361  51.374  33.286  0.00  0.00    +0.158 C 
BRANCH  11  12
ATOM     12  C   ASN A   7      10.090  51.948  33.917  0.00  0.00    +0.241 C 
ATOM     13  N   LEU A   8       9.850  51.540  35.151  0.00  0.00    -0.297 N 
ATOM     14  H   LEU A   8      10.547  50.960  35.660  0.00  0.00    +0.150 HD
ATOM     15  O   ASN A   7       9.336  52.740  33.302  0.00  0.00    -0.273 OA
BRANCH  13  16
ATOM     16  CA  LEU A   8       8.586  51.918  35.791  0.00  0.00    +0.149 C 
BRANCH  16  17
ATOM     17  C   LEU A   8       8.603  53.324  36.384  0.00  0.00    +0.241 C 
ATOM     18  N   ASN A   9       9.801  53.868  36.639  0.00  0.00    -0.297 N 
ATOM     19  H   ASN A   9      10.669  53.368  36.358  0.00  0.00    +0.150 HD
ATOM     20  O   LEU A   8       7.532  53.883  36.638  0.00  0.00    -0.273 OA
BRANCH  18  21
ATOM     21  CA  ASN A   9       9.893  55.196  37.328  0.00  0.00    +0.158 C 
BRANCH  21  22
ATOM     22  C   ASN A   9       8.991  55.340  38.571  0.00  0.00    +0.241 C 
ATOM     23  N   GLY A  10       8.906  54.278  39.341  0.00  0.00    -0.296 N 
ATOM     24  H   GLY A  10       9.365  53.389  39.059  0.00  0.00    +0.150 HD
ATOM     25  O   ASN A   9       8.355  56.372  38.788  0.00  0.00    -0.273 OA
BRANCH  23  26
ATOM     26  CA  GLY A  10       8.167  54.355  40.587  0.00  0.00    +0.163 C 
BRANCH  26  27
ATOM     27  C   GLY A  10       6.715  53.918  40.518  0.00  0.00    +0.229 C 
ATOM     28  O   GLY A  10       6.035  53.902  41.555  0.00  0.00    -0.286 OA
ENDBRANCH  26  27
ENDBRANCH  23  26
ENDBRANCH  21  22
BRANCH  21  29
ATOM     29  CB  ASN A   9       9.591  56.316  36.343  0.00  0.00    +0.114 C 
BRANCH  29  30
ATOM     30  CG  ASN A   9      10.632  56.386  35.248  0.00  0.00    +0.222 C 
ATOM     31  OD1 ASN A   9      11.818  56.114  35.481  0.00  0.00    -0.275 OA
ATOM     32  ND2 ASN A   9      10.178  56.686  34.021  0.00  0.00    -0.329 N 
ATOM     33 HD21 ASN A   9       9.172  56.907  33.879  0.00  0.00    +0.145 HD
ATOM     34 HD22 ASN A   9      10.832  56.697  33.213  0.00  0.00    +0.145 HD
ENDBRANCH  29  30
ENDBRANCH  21  29
ENDBRANCH  18  21
ENDBRANCH  16  17
BRANCH  16  35
ATOM     35  CB  LEU A   8       8.331  50.995  37.006  0.00  0.00    +0.029 C 
BRANCH  35  36
ATOM     36  CG  LEU A   8       8.049  49.561  36.616  0.00  0.00    +0.002 C 
ATOM     37  CD2 LEU A   8       7.936  48.701  37.923  0.00  0.00    +0.000 C 
ATOM     38  CD1 LEU A   8       6.688  49.528  35.871  0.00  0.00    +0.000 C 
ENDBRANCH  35  36
ENDBRANCH  16  35
ENDBRANCH  13  16
ENDBRANCH  11  12
BRANCH  11  39
ATOM     39  CB  ASN A   7      11.779  52.172  32.040  0.00  0.00    +0.114 C 
BRANCH  39  40
ATOM     40  CG  ASN A   7      13.188  51.843  31.642  0.00  0.00    +0.222 C 
ATOM     41  OD1 ASN A   7      14.163  52.432  32.163  0.00  0.00    -0.275 OA
ATOM     42  ND2 ASN A   7      13.329  50.823  30.795  0.00  0.00    -0.329 N 
ATOM     43 HD21 ASN A   7      14.279  50.485  30.542  0.00  0.00    +0.145 HD
ATOM     44 HD22 ASN A   7      12.489  50.365  30.388  0.00  0.00    +0.145 HD
ENDBRANCH  39  40
ENDBRANCH  11  39
ENDBRANCH   9  11
ENDBRANCH   6   7
BRANCH   6  45
ATOM     45  CB  LEU A   6      10.199  47.358  34.270  0.00  0.00    +0.029 C 
BRANCH  45  46
ATOM     46  CG  LEU A   6       9.340  46.086  34.144  0.00  0.00    +0.002 C 
ATOM     47  CD2 LEU A   6       8.481  45.908  35.408  0.00  0.00    +0.000 C 
ATOM     48  CD1 LEU A   6       8.468  46.092  32.908  0.00  0.00    +0.000 C 
ENDBRANCH  45  46
ENDBRANCH   6  45
ENDBRANCH   3   6
ENDBRANCH   1   2
BRANCH   1  51
ATOM     49  C   ASN A   4      14.267  43.782  34.339  0.00  0.00    +0.241 C 
ATOM     50  O   ASN A   4      15.333  44.297  34.737  0.00  0.00    -0.273 OA
ATOM     51  N   ILE A   5      13.641  44.120  33.202  0.00  0.00    -0.297 N 
ATOM     52  H   ILE A   5      12.796  43.583  32.921  0.00  0.00    +0.150 HD
BRANCH  49  53
ATOM     53  CA  ASN A   4      13.629  42.592  35.055  0.00  0.00    +0.158 C 
BRANCH  53  55
ATOM     54  C   GLY A   3      15.495  41.088  35.295  0.00  0.00    +0.243 C 
ATOM     55  N   ASN A   4      14.626  41.903  35.879  0.00  0.00    -0.297 N 
ATOM     56  H   ASN A   4      14.652  42.051  36.908  0.00  0.00    +0.150 HD
ATOM     57  O   GLY A   3      15.569  40.923  34.065  0.00  0.00    -0.273 OA
BRANCH  54  58
ATOM     58  CA  GLY A   3      16.502  40.442  36.207  0.00  0.00    +0.176 C 
BRANCH  58  61
ATOM     59  C   ARG A   2      18.093  38.610  36.112  0.00  0.00    +0.241 C 
ATOM     60  O   ARG A   2      18.898  39.231  36.791  0.00  0.00    -0.273 OA
ATOM     61  N   GLY A   3      16.915  39.116  35.716  0.00  0.00    -0.295 N 
ATOM     62  H   GLY A   3      16.301  38.579  35.071  0.00  0.00    +0.150 HD
BRANCH  59  63
ATOM     63  CA  ARG A   2      18.375  37.158  35.730  0.00  0.00    +0.149 C 
BRANCH  63  65
ATOM     64  C   GLN A   1      20.793  37.338  35.199  0.00  0.00    +0.238 C 
ATOM     65  N   ARG A   2      19.811  36.853  35.967  0.00  0.00    -0.297 N 
ATOM     66  H   ARG A   2      20.063  36.235  36.765  0.00  0.00    +0.150 HD
ATOM     67  O   GLN A   1      20.599  37.891  34.066  0.00  0.00    -0.274 OA
BRANCH  64  68
ATOM     68  CA  GLN A   1      22.213  37.109  35.719  0.00  0.00    +0.145 C 
BRANCH  68  69
ATOM     69  N   GLN A   1      22.940  36.191  34.818  0.00  0.00    -0.238 NA
ATOM     70  H   GLN A   1      23.448  36.579  33.998  0.00  0.00    +0.142 HD
ENDBRANCH  68  69
BRANCH  68  71
ATOM     71  CB  GLN A   1      22.975  38.439  35.740  0.00  0.00    +0.036 C 
BRANCH  71  72
ATOM     72  CG  GLN A   1      22.242  39.506  36.598  0.00  0.00    +0.087 C 
BRANCH  72  73
ATOM     73  CD  GLN A   1      22.814  40.907  36.382  0.00  0.00    +0.219 C 
ATOM     74  OE1 GLN A   1      22.084  41.909  36.431  0.00  0.00    -0.275 OA
ATOM     75  NE2 GLN A   1      24.144  41.006  36.243  0.00  0.00    -0.329 N 
ATOM     76 HE21 GLN A   1      24.728  40.146  36.205  0.00  0.00    +0.145 HD
ATOM     77 HE22 GLN A   1      24.591  41.942  36.173  0.00  0.00    +0.145 HD
ENDBRANCH  72  73
ENDBRANCH  71  72
ENDBRANCH  68  71
ENDBRANCH  64  68
ENDBRANCH  63  65
BRANCH  63  78
ATOM     78  CB  ARG A   2      17.476  36.250  36.576  0.00  0.00    +0.033 C 
BRANCH  78  79
ATOM     79  CG  ARG A   2      17.463  34.787  36.063  0.00  0.00    +0.045 C 
BRANCH  79  80
ATOM     80  CD  ARG A   2      17.131  33.824  37.188  0.00  0.00    +0.174 C 
BRANCH  80  81
ATOM     81  NE  ARG A   2      17.364  32.427  36.785  0.00  0.00    -0.265 N 
ATOM     82  CZ  ARG A   2      18.568  31.878  36.737  0.00  0.00    +0.342 C 
ATOM     83  NH2 ARG A   2      19.654  32.607  36.988  0.00  0.00    -0.292 N 
ATOM     84 HH21 ARG A   2      19.560  33.616  37.224  0.00  0.00    +0.255 HD
ATOM     85 HH22 ARG A   2      20.596  32.168  36.948  0.00  0.00    +0.255 HD
ATOM     86  NH1 ARG A   2      18.672  30.577  36.371  0.00  0.00    -0.292 N 
ATOM     87 HH11 ARG A   2      19.606  30.123  36.326  0.00  0.00    +0.255 HD
ATOM     88 HH12 ARG A   2      17.817  30.033  36.136  0.00  0.00    +0.255 HD
ATOM     89  HE  ARG A   2      16.543  31.843  36.526  0.00  0.00    +0.259 HD
ENDBRANCH  80  81
ENDBRANCH  79  80
ENDBRANCH  78  79
ENDBRANCH  63  78
ENDBRANCH  59  63
ENDBRANCH  58  61
ENDBRANCH  54  58
ENDBRANCH  53  55
BRANCH  53  90
ATOM     90  CB  ASN A   4      12.397  43.055  35.871  0.00  0.00    +0.114 C 
BRANCH  90  91
ATOM     91  CG  ASN A   4      12.650  44.395  36.599  0.00  0.00    +0.222 C 
ATOM     92  ND2 ASN A   4      12.772  44.363  37.962  0.00  0.00    -0.329 N 
ATOM     93 HD21 ASN A   4      12.832  45.251  38.500  0.00  0.00    +0.145 HD
ATOM     94 HD22 ASN A   4      12.804  43.451  38.460  0.00  0.00    +0.145 HD
ATOM     95  OD1 ASN A   4      12.607  45.448  35.962  0.00  0.00    -0.275 OA
ENDBRANCH  90  91
ENDBRANCH  53  90
ENDBRANCH  49  53
ENDBRANCH   1  51
BRANCH   1  96
ATOM     96  CB  ILE A   5      14.524  44.647  30.963  0.00  0.00    +0.027 C 
ATOM     97  CG2 ILE A   5      15.850  43.855  31.112  0.00  0.00    +0.002 C 
BRANCH  96  98
ATOM     98  CG1 ILE A   5      13.436  43.705  30.433  0.00  0.00    +0.002 C 
ATOM     99  CD1 ILE A   5      13.609  43.374  28.846  0.00  0.00    +0.000 C 
ENDBRANCH  96  98
ENDBRANCH   1  96
TORSDOF 39
REMARK  Name = ../refined-set-2016/2xeg/2xeg_pocket.pdb
REMARK  382 active torsions:
REMARK  status: ('A' for Active; 'I' for Inactive)
REMARK    1  A    between atoms: _1  and  _3
REMARK    2  A    between atoms: _3  and  _4
REMARK    3  A    between atoms: _7  and  _9
REMARK    4  A    between atoms: _9  and  _10
REMARK    5  A    between atoms: _9  and  _12
REMARK    6  A    between atoms: _12  and  _13
REMARK    7  A    between atoms: _19  and  _21
REMARK    8  A    between atoms: _21  and  _22
REMARK    9  A    between atoms: _21  and  _24
REMARK   10  A    between atoms: _24  and  _25
REMARK   11  A    between atoms: _30  and  _31
REMARK   12  A    between atoms: _33  and  _35
REMARK   13  A    between atoms: _35  and  _36
REMARK   14  A    between atoms: _38  and  _40
REMARK   15  A    between atoms: _40  and  _41
REMARK   16  A    between atoms: _40  and  _43
REMARK   17  A    between atoms: _43  and  _44
REMARK   18  A    between atoms: _44  and  _45
REMARK   19  A    between atoms: _45  and  _46
REMARK   20  A    between atoms: _46  and  _47
REMARK   21  A    between atoms: _51  and  _53
REMARK   22  A    between atoms: _53  and  _54
REMARK   23  A    between atoms: _53  and  _56
REMARK   24  A    between atoms: _59  and  _61
REMARK   25  A    between atoms: _61  and  _62
REMARK   26  A    between atoms: _61  and  _64
REMARK   27  A    between atoms: _64  and  _65
REMARK   28  A    between atoms: _71  and  _73
REMARK   29  A    between atoms: _73  and  _74
REMARK   30  A    between atoms: _73  and  _76
REMARK   31  A    between atoms: _76  and  _77
REMARK   32  A    between atoms: _77  and  _78
REMARK   33  A    between atoms: _78  and  _79
REMARK   34  A    between atoms: _88  and  _90
REMARK   35  A    between atoms: _90  and  _91
REMARK   36  A    between atoms: _93  and  _95
REMARK   37  A    between atoms: _95  and  _96
REMARK   38  A    between atoms: _95  and  _98
REMARK   39  A    between atoms: _98  and  _99
REMARK   40  A    between atoms: _99  and  _100
REMARK   41  A    between atoms: _100  and  _101
REMARK   42  A    between atoms: _101  and  _102
REMARK   43  A    between atoms: _106  and  _108
REMARK   44  A    between atoms: _108  and  _109
REMARK   45  A    between atoms: _108  and  _111
REMARK   46  A    between atoms: _111  and  _112
REMARK   47  A    between atoms: _115  and  _117
REMARK   48  A    between atoms: _117  and  _118
REMARK   49  A    between atoms: _117  and  _120
REMARK   50  A    between atoms: _120  and  _121
REMARK   51  A    between atoms: _126  and  _127
REMARK   52  A    between atoms: _129  and  _131
REMARK   53  A    between atoms: _131  and  _132
REMARK   54  A    between atoms: _131  and  _134
REMARK   55  A    between atoms: _134  and  _135
REMARK   56  A    between atoms: _135  and  _136
REMARK   57  A    between atoms: _141  and  _143
REMARK   58  A    between atoms: _143  and  _144
REMARK   59  A    between atoms: _143  and  _146
REMARK   60  A    between atoms: _146  and  _147
REMARK   61  A    between atoms: _147  and  _148
REMARK   62  A    between atoms: _148  and  _149
REMARK   63  A    between atoms: _158  and  _160
REMARK   64  A    between atoms: _160  and  _161
REMARK   65  A    between atoms: _163  and  _165
REMARK   66  A    between atoms: _165  and  _166
REMARK   67  A    between atoms: _165  and  _168
REMARK   68  A    between atoms: _168  and  _169
REMARK   69  A    between atoms: _174  and  _176
REMARK   70  A    between atoms: _176  and  _177
REMARK   71  A    between atoms: _176  and  _179
REMARK   72  A    between atoms: _179  and  _180
REMARK   73  A    between atoms: _183  and  _185
REMARK   74  A    between atoms: _185  and  _186
REMARK   75  A    between atoms: _185  and  _188
REMARK   76  A    between atoms: _188  and  _189
REMARK   77  A    between atoms: _192  and  _194
REMARK   78  A    between atoms: _194  and  _195
REMARK   79  A    between atoms: _194  and  _197
REMARK   80  A    between atoms: _197  and  _198
REMARK   81  A    between atoms: _203  and  _205
REMARK   82  A    between atoms: _205  and  _206
REMARK   83  A    between atoms: _205  and  _208
REMARK   84  A    between atoms: _208  and  _209
REMARK   85  A    between atoms: _212  and  _214
REMARK   86  A    between atoms: _214  and  _215
REMARK   87  A    between atoms: _214  and  _217
REMARK   88  A    between atoms: _217  and  _218
REMARK   89  A    between atoms: _223  and  _225
REMARK   90  A    between atoms: _225  and  _226
REMARK   91  A    between atoms: _228  and  _230
REMARK   92  A    between atoms: _230  and  _231
REMARK   93  A    between atoms: _230  and  _233
REMARK   94  A    between atoms: _233  and  _234
REMARK   95  A    between atoms: _238  and  ZN_939
REMARK   96  A    between atoms: _239  and  _241
REMARK   97  A    between atoms: _241  and  _242
REMARK   98  A    between atoms: _241  and  _244
REMARK   99  A    between atoms: _244  and  _245
REMARK  100  A    between atoms: _248  and  _250
REMARK  101  A    between atoms: _250  and  _251
REMARK  102  A    between atoms: _250  and  _253
REMARK  103  A    between atoms: _253  and  _254
REMARK  104  A    between atoms: _264  and  _266
REMARK  105  A    between atoms: _266  and  _267
REMARK  106  A    between atoms: _266  and  _269
REMARK  107  A    between atoms: _269  and  _270
REMARK  108  A    between atoms: _273  and  _275
REMARK  109  A    between atoms: _275  and  _276
REMARK  110  A    between atoms: _275  and  _278
REMARK  111  A    between atoms: _278  and  _279
REMARK  112  A    between atoms: _279  and  _280
REMARK  113  A    between atoms: _279  and  _281
REMARK  114  A    between atoms: _280  and  ZN_939
REMARK  115  A    between atoms: _281  and  ZN_938
REMARK  116  A    between atoms: _283  and  _284
REMARK  117  A    between atoms: _289  and  _291
REMARK  118  A    between atoms: _291  and  _292
REMARK  119  A    between atoms: _295  and  _297
REMARK  120  A    between atoms: _297  and  _298
REMARK  121  A    between atoms: _297  and  _300
REMARK  122  A    between atoms: _300  and  _301
REMARK  123  A    between atoms: _301  and  _302
REMARK  124  A    between atoms: _305  and  _307
REMARK  125  A    between atoms: _307  and  _308
REMARK  126  A    between atoms: _307  and  _310
REMARK  127  A    between atoms: _310  and  _311
REMARK  128  A    between atoms: _311  and  _312
REMARK  129  A    between atoms: _312  and  _314
REMARK  130  A    between atoms: _314  and  ZN_938
REMARK  131  A    between atoms: _315  and  _317
REMARK  132  A    between atoms: _317  and  _318
REMARK  133  A    between atoms: _317  and  _320
REMARK  134  A    between atoms: _320  and  _321
REMARK  135  A    between atoms: _327  and  _329
REMARK  136  A    between atoms: _329  and  _330
REMARK  137  A    between atoms: _332  and  _334
REMARK  138  A    between atoms: _334  and  _335
REMARK  139  A    between atoms: _334  and  _337
REMARK  140  A    between atoms: _337  and  _338
REMARK  141  A    between atoms: _341  and  _343
REMARK  142  A    between atoms: _343  and  _344
REMARK  143  A    between atoms: _343  and  _346
REMARK  144  A    between atoms: _346  and  _347
REMARK  145  A    between atoms: _350  and  _352
REMARK  146  A    between atoms: _352  and  _353
REMARK  147  A    between atoms: _352  and  _355
REMARK  148  A    between atoms: _355  and  _356
REMARK  149  A    between atoms: _361  and  _363
REMARK  150  A    between atoms: _363  and  _364
REMARK  151  A    between atoms: _363  and  _366
REMARK  152  A    between atoms: _366  and  _367
REMARK  153  A    between atoms: _367  and  _369
REMARK  154  A    between atoms: _369  and  ZN_939
REMARK  155  A    between atoms: _370  and  _372
REMARK  156  A    between atoms: _372  and  _373
REMARK  157  A    between atoms: _372  and  _375
REMARK  158  A    between atoms: _375  and  _376
REMARK  159  A    between atoms: _378  and  _380
REMARK  160  A    between atoms: _380  and  _381
REMARK  161  A    between atoms: _380  and  _383
REMARK  162  A    between atoms: _383  and  _384
REMARK  163  A    between atoms: _386  and  _388
REMARK  164  A    between atoms: _388  and  _389
REMARK  165  A    between atoms: _388  and  _391
REMARK  166  A    between atoms: _391  and  _392
REMARK  167  A    between atoms: _395  and  _397
REMARK  168  A    between atoms: _397  and  _398
REMARK  169  A    between atoms: _397  and  _400
REMARK  170  A    between atoms: _400  and  _401
REMARK  171  A    between atoms: _401  and  _402
REMARK  172  A    between atoms: _405  and  _407
REMARK  173  A    between atoms: _407  and  _408
REMARK  174  A    between atoms: _407  and  _410
REMARK  175  A    between atoms: _410  and  _411
REMARK  176  A    between atoms: _416  and  _417
REMARK  177  A    between atoms: _419  and  _421
REMARK  178  A    between atoms: _421  and  _422
REMARK  179  A    between atoms: _421  and  _424
REMARK  180  A    between atoms: _424  and  _425
REMARK  181  A    between atoms: _428  and  _430
REMARK  182  A    between atoms: _430  and  _431
REMARK  183  A    between atoms: _430  and  _433
REMARK  184  A    between atoms: _433  and  _434
REMARK  185  A    between atoms: _437  and  _439
REMARK  186  A    between atoms: _439  and  _440
REMARK  187  A    between atoms: _439  and  _442
REMARK  188  A    between atoms: _442  and  _443
REMARK  189  A    between atoms: _443  and  _444
REMARK  190  A    between atoms: _444  and  _445
REMARK  191  A    between atoms: _454  and  _456
REMARK  192  A    between atoms: _456  and  _457
REMARK  193  A    between atoms: _456  and  _459
REMARK  194  A    between atoms: _462  and  _464
REMARK  195  A    between atoms: _464  and  _465
REMARK  196  A    between atoms: _464  and  _467
REMARK  197  A    between atoms: _467  and  _468
REMARK  198  A    between atoms: _471  and  _473
REMARK  199  A    between atoms: _473  and  _474
REMARK  200  A    between atoms: _473  and  _476
REMARK  201  A    between atoms: _476  and  _477
REMARK  202  A    between atoms: _487  and  _489
REMARK  203  A    between atoms: _489  and  _490
REMARK  204  A    between atoms: _489  and  _492
REMARK  205  A    between atoms: _492  and  _493
REMARK  206  A    between atoms: _493  and  _494
REMARK  207  A    between atoms: _494  and  _495
REMARK  208  A    between atoms: _495  and  _496
REMARK  209  A    between atoms: _500  and  _502
REMARK  210  A    between atoms: _502  and  _503
REMARK  211  A    between atoms: _502  and  _505
REMARK  212  A    between atoms: _505  and  _506
REMARK  213  A    between atoms: _509  and  _510
REMARK  214  A    between atoms: _516  and  _517
REMARK  215  A    between atoms: _522  and  _524
REMARK  216  A    between atoms: _524  and  _525
REMARK  217  A    between atoms: _524  and  _527
REMARK  218  A    between atoms: _527  and  _528
REMARK  219  A    between atoms: _528  and  _529
REMARK  220  A    between atoms: _529  and  _530
REMARK  221  A    between atoms: _539  and  _541
REMARK  222  A    between atoms: _541  and  _542
REMARK  223  A    between atoms: _541  and  _544
REMARK  224  A    between atoms: _544  and  _545
REMARK  225  A    between atoms: _548  and  _550
REMARK  226  A    between atoms: _550  and  _551
REMARK  227  A    between atoms: _550  and  _553
REMARK  228  A    between atoms: _553  and  _554
REMARK  229  A    between atoms: _556  and  _558
REMARK  230  A    between atoms: _558  and  _559
REMARK  231  A    between atoms: _558  and  _561
REMARK  232  A    between atoms: _561  and  _562
REMARK  233  A    between atoms: _562  and  _563
REMARK  234  A    between atoms: _563  and  _564
REMARK  235  A    between atoms: _564  and  _565
REMARK  236  A    between atoms: _569  and  _571
REMARK  237  A    between atoms: _571  and  _572
REMARK  238  A    between atoms: _571  and  _574
REMARK  239  A    between atoms: _574  and  _575
REMARK  240  A    between atoms: _578  and  _580
REMARK  241  A    between atoms: _580  and  _581
REMARK  242  A    between atoms: _583  and  _585
REMARK  243  A    between atoms: _585  and  _586
REMARK  244  A    between atoms: _585  and  _588
REMARK  245  A    between atoms: _588  and  _589
REMARK  246  A    between atoms: _591  and  _593
REMARK  247  A    between atoms: _593  and  _594
REMARK  248  A    between atoms: _596  and  _598
REMARK  249  A    between atoms: _598  and  _599
REMARK  250  A    between atoms: _598  and  _601
REMARK  251  A    between atoms: _601  and  _602
REMARK  252  A    between atoms: _607  and  _609
REMARK  253  A    between atoms: _609  and  _610
REMARK  254  A    between atoms: _609  and  _612
REMARK  255  A    between atoms: _612  and  _613
REMARK  256  A    between atoms: _616  and  _618
REMARK  257  A    between atoms: _618  and  _619
REMARK  258  A    between atoms: _618  and  _621
REMARK  259  A    between atoms: _621  and  _622
REMARK  260  A    between atoms: _628  and  _630
REMARK  261  A    between atoms: _630  and  _631
REMARK  262  A    between atoms: _630  and  _633
REMARK  263  A    between atoms: _633  and  _634
REMARK  264  A    between atoms: _634  and  _635
REMARK  265  A    between atoms: _638  and  _640
REMARK  266  A    between atoms: _640  and  _641
REMARK  267  A    between atoms: _640  and  _643
REMARK  268  A    between atoms: _643  and  _644
REMARK  269  A    between atoms: _644  and  _645
REMARK  270  A    between atoms: _645  and  _646
REMARK  271  A    between atoms: _655  and  _657
REMARK  272  A    between atoms: _657  and  _658
REMARK  273  A    between atoms: _657  and  _660
REMARK  274  A    between atoms: _660  and  _661
REMARK  275  A    between atoms: _661  and  _662
REMARK  276  A    between atoms: _662  and  _663
REMARK  277  A    between atoms: _672  and  _674
REMARK  278  A    between atoms: _674  and  _675
REMARK  279  A    between atoms: _674  and  _677
REMARK  280  A    between atoms: _677  and  _678
REMARK  281  A    between atoms: _683  and  _684
REMARK  282  A    between atoms: _686  and  _688
REMARK  283  A    between atoms: _688  and  _689
REMARK  284  A    between atoms: _688  and  _691
REMARK  285  A    between atoms: _691  and  _692
REMARK  286  A    between atoms: _695  and  _697
REMARK  287  A    between atoms: _697  and  _698
REMARK  288  A    between atoms: _697  and  _700
REMARK  289  A    between atoms: _700  and  _701
REMARK  290  A    between atoms: _701  and  _702
REMARK  291  A    between atoms: _702  and  _703
REMARK  292  A    between atoms: _703  and  _704
REMARK  293  A    between atoms: _708  and  _710
REMARK  294  A    between atoms: _710  and  _711
REMARK  295  A    between atoms: _710  and  _713
REMARK  296  A    between atoms: _713  and  _714
REMARK  297  A    between atoms: _719  and  _721
REMARK  298  A    between atoms: _721  and  _722
REMARK  299  A    between atoms: _721  and  _724
REMARK  300  A    between atoms: _724  and  _725
REMARK  301  A    between atoms: _735  and  _737
REMARK  302  A    between atoms: _737  and  _738
REMARK  303  A    between atoms: _737  and  _740
REMARK  304  A    between atoms: _740  and  _741
REMARK  305  A    between atoms: _741  and  _742
REMARK  306  A    between atoms: _745  and  _747
REMARK  307  A    between atoms: _747  and  _748
REMARK  308  A    between atoms: _747  and  _750
REMARK  309  A    between atoms: _750  and  _751
REMARK  310  A    between atoms: _754  and  _756
REMARK  311  A    between atoms: _756  and  _757
REMARK  312  A    between atoms: _756  and  _759
REMARK  313  A    between atoms: _759  and  _760
REMARK  314  A    between atoms: _765  and  _767
REMARK  315  A    between atoms: _767  and  _768
REMARK  316  A    between atoms: _767  and  _770
REMARK  317  A    between atoms: _770  and  _771
REMARK  318  A    between atoms: _777  and  _779
REMARK  319  A    between atoms: _779  and  _780
REMARK  320  A    between atoms: _779  and  _782
REMARK  321  A    between atoms: _782  and  _783
REMARK  322  A    between atoms: _785  and  _787
REMARK  323  A    between atoms: _787  and  _788
REMARK  324  A    between atoms: _790  and  _792
REMARK  325  A    between atoms: _792  and  _793
REMARK  326  A    between atoms: _792  and  _795
REMARK  327  A    between atoms: _795  and  _796
REMARK  328  A    between atoms: _801  and  _802
REMARK  329  A    between atoms: _804  and  _806
REMARK  330  A    between atoms: _806  and  _807
REMARK  331  A    between atoms: _806  and  _809
REMARK  332  A    between atoms: _809  and  _810
REMARK  333  A    between atoms: _815  and  _816
REMARK  334  A    between atoms: _818  and  _820
REMARK  335  A    between atoms: _820  and  _821
REMARK  336  A    between atoms: _820  and  _823
REMARK  337  A    between atoms: _823  and  _824
REMARK  338  A    between atoms: _828  and  ZN_938
REMARK  339  A    between atoms: _829  and  _831
REMARK  340  A    between atoms: _831  and  _832
REMARK  341  A    between atoms: _831  and  _834
REMARK  342  A    between atoms: _834  and  _835
REMARK  343  A    between atoms: _835  and  _836
REMARK  344  A    between atoms: _839  and  _841
REMARK  345  A    between atoms: _841  and  _842
REMARK  346  A    between atoms: _841  and  _844
REMARK  347  A    between atoms: _844  and  _845
REMARK  348  A    between atoms: _845  and  _846
REMARK  349  A    between atoms: _846  and  _847
REMARK  350  A    between atoms: _856  and  _858
REMARK  351  A    between atoms: _858  and  _859
REMARK  352  A    between atoms: _858  and  _861
REMARK  353  A    between atoms: _861  and  _862
REMARK  354  A    between atoms: _867  and  _868
REMARK  355  A    between atoms: _870  and  _872
REMARK  356  A    between atoms: _872  and  _873
REMARK  357  A    between atoms: _872  and  _875
REMARK  358  A    between atoms: _875  and  _876
REMARK  359  A    between atoms: _878  and  _880
REMARK  360  A    between atoms: _880  and  _881
REMARK  361  A    between atoms: _880  and  _883
REMARK  362  A    between atoms: _883  and  _884
REMARK  363  A    between atoms: _889  and  _891
REMARK  364  A    between atoms: _891  and  _892
REMARK  365  A    between atoms: _891  and  _894
REMARK  366  A    between atoms: _894  and  _895
REMARK  367  A    between atoms: _900  and  _902
REMARK  368  A    between atoms: _902  and  _903
REMARK  369  A    between atoms: _902  and  _905
REMARK  370  A    between atoms: _905  and  _906
REMARK  371  A    between atoms: _906  and  _907
REMARK  372  A    between atoms: _907  and  _908
REMARK  373  A    between atoms: _908  and  _909
REMARK  374  A    between atoms: _913  and  _915
REMARK  375  A    between atoms: _915  and  _916
REMARK  376  A    between atoms: _915  and  _918
REMARK  377  A    between atoms: _918  and  _919
REMARK  378  A    between atoms: _924  and  _925
REMARK  379  A    between atoms: _927  and  _929
REMARK  380  A    between atoms: _929  and  _930
REMARK  381  A    between atoms: _933  and  _935
REMARK  382  A    between atoms: _935  and  _936
REMARK                            x       y       z     vdW  Elec       q    Type
REMARK                         _______ _______ _______ _____ _____    ______ ____
ROOT
ATOM      1 ZN   UNK A   1      17.463  41.129  43.302  0.00  0.00    +0.000 Zn
ENDROOT
BRANCH   1   2
ATOM      2  N   UNK A   1      18.383  40.322  41.647  0.00  0.00    +0.000 N 
ATOM      3  C   UNK A   1      19.239  39.232  41.575  0.00  0.00    +0.000 A 
ATOM      4  C   UNK A   1      19.454  38.992  40.254  0.00  0.00    +0.000 A 
ATOM      5  N   UNK A   1      18.811  40.010  39.577  0.00  0.00    +0.000 NA
ATOM      6  C   UNK A   1      18.229  40.830  40.441  0.00  0.00    +0.000 A 
BRANCH   4   7
ATOM      7  C   UNK A   1      20.220  37.890  39.511  0.00  0.00    +0.000 C 
BRANCH   7   8
ATOM      8  C   UNK A   1      20.733  36.756  40.408  0.00  0.00    +0.000 C 
BRANCH   8   9
ATOM      9  N   UNK A   1      21.922  37.190  41.196  0.00  0.00    +0.000 N 
ATOM     10  H   UNK A   1      21.852  37.128  42.232  0.00  0.00    +0.000 HD
ATOM     11  C   UNK A   1      23.075  37.654  40.687  0.00  0.00    +0.000 C 
ATOM     12  O   UNK A   1      23.323  37.645  39.459  0.00  0.00    +0.000 OA
BRANCH  11  13
ATOM     13  C   UNK A   1      24.089  38.181  41.697  0.00  0.00    +0.000 C 
BRANCH  13  14
ATOM     14  N   UNK A   1      25.415  37.490  41.698  0.00  0.00    +0.000 NA
ATOM     15  H   UNK A   1      26.291  38.050  41.734  0.00  0.00    +0.000 HD
ENDBRANCH  13  14
BRANCH  13  16
ATOM     16  C   UNK A   1      24.409  39.659  41.477  0.00  0.00    +0.000 C 
BRANCH  16  17
ATOM     17  C   UNK A   1      23.214  40.611  41.262  0.00  0.00    +0.000 A 
ATOM     18  C   UNK A   1      22.315  40.878  42.297  0.00  0.00    +0.000 A 
ATOM     19  C   UNK A   1      21.231  41.782  42.069  0.00  0.00    +0.000 A 
ATOM     20  C   UNK A   1      21.094  42.381  40.800  0.00  0.00    +0.000 A 
ATOM     21  C   UNK A   1      22.007  42.155  39.816  0.00  0.00    +0.000 A 
ATOM     22  C   UNK A   1      23.018  41.235  40.018  0.00  0.00    +0.000 A 
BRANCH  20  23
ATOM     23  O   UNK A   1      20.057  43.250  40.502  0.00  0.00    +0.000 OA
ATOM     24  H   UNK A   1      19.462  43.334  41.289  0.00  0.00    +0.000 HD
ENDBRANCH  20  23
ENDBRANCH  16  17
ENDBRANCH  13  16
ENDBRANCH  11  13
ENDBRANCH   8   9
BRANCH   8  25
ATOM     25  C   UNK A   1      20.990  35.503  39.554  0.00  0.00    +0.000 C 
ATOM     26  O   UNK A   2      20.247  35.219  38.584  0.00  0.00    +0.000 OA
ENDBRANCH   8  25
ENDBRANCH   7   8
ENDBRANCH   4   7
ENDBRANCH   1   2
BRANCH   1  27
ATOM     27  O   UNK A   1      18.983  40.474  44.574  0.00  0.00    +0.000 OA
BRANCH  27  28
ATOM     28  C   UNK A   1      18.777  39.973  45.721  0.00  0.00    +0.000 C 
BRANCH  28  29
ATOM     29  O   UNK A   1      17.787  40.157  46.446  0.00  0.00    +0.000 OA
BRANCH  29  30
ATOM     30 ZN   UNK A   1      16.693  41.826  46.444  0.00  0.00    +0.000 Zn
BRANCH  30  33
ATOM     31  C   UNK A   1      12.848  41.312  48.033  0.00  0.00    +0.000 A 
ATOM     32  C   UNK A   1      14.007  42.017  47.883  0.00  0.00    +0.000 A 
ATOM     33  N   UNK A   1      14.812  41.309  47.018  0.00  0.00    +0.000 N 
ATOM     34  C   UNK A   1      14.167  40.213  46.636  0.00  0.00    +0.000 A 
ATOM     35  N   UNK A   1      12.964  40.206  47.211  0.00  0.00    +0.000 NA
BRANCH  31  36
ATOM     36  C   UNK A   1      11.551  41.634  48.706  0.00  0.00    +0.000 C 
BRANCH  36  37
ATOM     37  C   UNK A   1      11.510  41.307  50.203  0.00  0.00    +0.000 C 
BRANCH  37  38
ATOM     38  C   UNK A   1      11.897  39.866  50.485  0.00  0.00    +0.000 C 
ATOM     39  O   UNK A   1      12.943  39.575  51.124  0.00  0.00    +0.000 OA
ENDBRANCH  37  38
BRANCH  37  40
ATOM     40  N   UNK A   1      12.286  42.283  50.964  0.00  0.00    +0.000 NA
ATOM     41  H   UNK A   1      13.171  42.681  50.591  0.00  0.00    +0.000 HD
ENDBRANCH  37  40
ENDBRANCH  36  37
ENDBRANCH  31  36
ENDBRANCH  30  33
BRANCH  30  42
ATOM     42  O   UNK A   1      17.106  43.283  47.708  0.00  0.00    +0.000 OA
BRANCH  42  43
ATOM     43  C   UNK A   1      17.207  42.858  48.877  0.00  0.00    +0.000 C 
ATOM     44  O   UNK A   1      17.248  41.663  49.161  0.00  0.00    +0.000 OA
BRANCH  43  45
ATOM     45  C   UNK A   1      17.348  43.902  49.993  0.00  0.00    +0.000 C 
BRANCH  45  46
ATOM     46  C   UNK A   1      17.358  43.301  51.399  0.00  0.00    +0.000 C 
BRANCH  46  47
ATOM     47  C   UNK A   1      18.730  42.745  51.800  0.00  0.00    +0.000 C 
ATOM     48  O   UNK A   1      19.043  42.768  53.018  0.00  0.00    +0.000 OA
ATOM     49  N   UNK A   2      19.494  42.252  50.820  0.00  0.00    +0.000 N 
ATOM     50  H   UNK A   2      19.170  42.353  49.837  0.00  0.00    +0.000 HD
BRANCH  49  51
ATOM     51  C   UNK A   2      20.791  41.563  51.076  0.00  0.00    +0.000 C 
BRANCH  51  52
ATOM     52  C   UNK A   2      21.602  42.167  52.223  0.00  0.00    +0.000 C 
ATOM     53  N   UNK A   3      21.941  41.327  53.204  0.00  0.00    +0.000 N 
ATOM     54  H   UNK A   3      21.657  40.328  53.158  0.00  0.00    +0.000 HD
ATOM     55  O   UNK A   2      21.861  43.372  52.251  0.00  0.00    +0.000 OA
BRANCH  53  56
ATOM     56  C   UNK A   3      22.719  41.823  54.352  0.00  0.00    +0.000 C 
BRANCH  56  57
ATOM     57  C   UNK A   3      24.204  41.965  54.031  0.00  0.00    +0.000 C 
ATOM     58  O   UNK A   3      24.938  42.673  54.734  0.00  0.00    +0.000 OA
ATOM     59  N   PHE A   4      24.650  41.277  52.980  0.00  0.00    +0.000 N 
ATOM     60  H   PHE A   4      23.975  40.747  52.393  0.00  0.00    +0.000 HD
BRANCH  59  61
ATOM     61  CA  PHE A   4      26.066  41.254  52.638  0.00  0.00    +0.000 C 
BRANCH  61  62
ATOM     62  C   PHE A   4      26.228  41.317  51.134  0.00  0.00    +0.000 C 
ATOM     63  N   GLY A   5      27.259  42.013  50.654  0.00  0.00    +0.000 N 
ATOM     64  H   GLY A   5      27.781  42.660  51.279  0.00  0.00    +0.000 HD
ATOM     65  O   PHE A   4      25.459  40.711  50.399  0.00  0.00    +0.000 OA
BRANCH  63  66
ATOM     66  CA  GLY A   5      27.663  41.872  49.247  0.00  0.00    +0.000 C 
BRANCH  66  67
ATOM     67  C   GLY A   5      29.203  41.785  49.241  0.00  0.00    +0.000 C 
ATOM     68  O   GLY A   5      29.833  41.911  48.214  0.00  0.00    +0.000 OA
ENDBRANCH  66  67
BRANCH  66  69
ATOM     69  CB  GLY A   5      27.184  43.044  48.404  0.00  0.00    +0.000 C 
BRANCH  69  70
ATOM     70  CG  GLY A   5      27.690  44.414  48.928  0.00  0.00    +0.000 C 
BRANCH  70  71
ATOM     71  CD  GLY A   5      27.032  45.611  48.224  0.00  0.00    +0.000 C 
ATOM     72  OE2 GLY A   5      27.564  46.737  48.397  0.00  0.00    +0.000 OA
ATOM     73  OE1 GLY A   5      25.997  45.450  47.549  0.00  0.00    +0.000 OA
ENDBRANCH  70  71
ENDBRANCH  69  70
ENDBRANCH  66  69
ENDBRANCH  63  66
ENDBRANCH  61  62
BRANCH  61  74
ATOM     74  CB  PHE A   4      26.765  39.948  53.189  0.00  0.00    +0.000 C 
ATOM     75  CG2 PHE A   4      26.840  39.980  54.726  0.00  0.00    +0.000 C 
BRANCH  74  76
ATOM     76  CG1 PHE A   4      25.946  38.699  52.770  0.00  0.00    +0.000 C 
ATOM     77  CD1 PHE A   4      26.732  37.479  52.531  0.00  0.00    +0.000 C 
ENDBRANCH  74  76
ENDBRANCH  61  74
ENDBRANCH  59  61
ENDBRANCH  56  57
BRANCH  56  78
ATOM     78  C   UNK A   3      22.572  40.904  55.562  0.00  0.00    +0.000 C 
BRANCH  78  79
ATOM     79  O   UNK A   3      21.237  40.989  56.067  0.00  0.00    +0.000 OA
ATOM     80  H   UNK A   3      20.600  40.711  55.362  0.00  0.00    +0.000 HD
ENDBRANCH  78  79
ENDBRANCH  56  78
ENDBRANCH  53  56
ENDBRANCH  51  52
BRANCH  51  81
ATOM     81  C   UNK A   2      21.609  41.598  49.817  0.00  0.00    +0.000 C 
BRANCH  81  82
ATOM     82  O   UNK A   2      20.830  41.015  48.828  0.00  0.00    +0.000 OA
ATOM     83  H   UNK A   2      21.330  41.015  47.973  0.00  0.00    +0.000 HD
ENDBRANCH  81  82
ENDBRANCH  51  81
ENDBRANCH  49  51
ENDBRANCH  46  47
BRANCH  46  84
ATOM     84  N   UNK A   1      16.983  44.317  52.398  0.00  0.00    +0.000 NA
ATOM     85  H   UNK A   1      17.176  45.324  52.223  0.00  0.00    +0.000 HD
ENDBRANCH  46  84
ENDBRANCH  45  46
ENDBRANCH  43  45
ENDBRANCH  42  43
ENDBRANCH  30  42
ENDBRANCH  29  30
ENDBRANCH  28  29
BRANCH  28  86
ATOM     86  C   UNK A   1      19.784  38.976  46.247  0.00  0.00    +0.000 C 
BRANCH  86  87
ATOM     87  C   UNK A   1      19.359  38.339  47.572  0.00  0.00    +0.000 C 
BRANCH  87  88
ATOM     88  C   UNK A   1      18.037  37.549  47.414  0.00  0.00    +0.000 C 
ATOM     89  N   UNK A   3      17.090  37.641  48.376  0.00  0.00    +0.000 N 
ATOM     90  C   UNK A   3      17.076  38.541  49.562  0.00  0.00    +0.000 C 
ATOM     91  C   UNK A   3      15.613  39.058  49.574  0.00  0.00    +0.000 C 
ATOM     92  C   UNK A   3      14.813  37.817  49.155  0.00  0.00    +0.000 C 
ATOM     93  C   UNK A   3      15.720  37.087  48.145  0.00  0.00    +0.000 C 
ATOM     94  O   UNK A   2      17.888  36.856  46.407  0.00  0.00    +0.000 OA
BRANCH  90  95
ATOM     95  C   UNK A   3      17.266  37.819  50.862  0.00  0.00    +0.000 C 
ATOM     96  O   UNK A   3      17.165  38.458  51.921  0.00  0.00    +0.000 OA
ENDBRANCH  90  95
ENDBRANCH  87  88
BRANCH  87  97
ATOM     97  N   UNK A   1      20.458  37.411  47.915  0.00  0.00    +0.000 N 
ATOM     98  C   UNK A   1      20.953  37.344  49.145  0.00  0.00    +0.000 C 
ATOM     99  O   UNK A   1      20.450  37.920  50.144  0.00  0.00    +0.000 OA
ATOM    100  H   UNK A   1      20.853  36.796  47.175  0.00  0.00    +0.000 HD
BRANCH  98 101
ATOM    101  C   UNK A   1      22.232  36.498  49.313  0.00  0.00    +0.000 C 
BRANCH 101 102
ATOM    102  C   UNK A   1      23.436  37.131  48.585  0.00  0.00    +0.000 C 
ATOM    103  C   UNK A   1      23.557  38.656  48.911  0.00  0.00    +0.000 C 
BRANCH 102 104
ATOM    104  C   UNK A   1      24.716  36.427  49.089  0.00  0.00    +0.000 C 
ATOM    105  C   UNK A   1      26.000  36.895  48.354  0.00  0.00    +0.000 C 
ENDBRANCH 102 104
ENDBRANCH 101 102
BRANCH 101 106
ATOM    106  N   UNK A   1      21.901  35.145  48.820  0.00  0.00    +0.000 NA
ATOM    107  H   UNK A   1      21.885  34.945  47.799  0.00  0.00    +0.000 HD
ENDBRANCH 101 106
ENDBRANCH  98 101
ENDBRANCH  87  97
ENDBRANCH  86  87
ENDBRANCH  28  86
ENDBRANCH  27  28
ENDBRANCH   1  27
BRANCH   1 108
ATOM    108  O   UNK A   1      15.972  39.635  43.661  0.00  0.00    +0.000 OA
BRANCH 108 109
ATOM    109  C   UNK A   1      15.135  40.015  42.826  0.00  0.00    +0.000 C 
ATOM    110  O   UNK A   1      15.397  40.981  42.050  0.00  0.00    +0.000 OA
BRANCH 109 111
ATOM    111  C   UNK A   1      13.680  39.391  42.858  0.00  0.00    +0.000 C 
BRANCH 111 112
ATOM    112  C   UNK A   1      12.798  39.809  41.659  0.00  0.00    +0.000 C 
BRANCH 112 113
ATOM    113  C   UNK A   1      12.352  41.283  41.672  0.00  0.00    +0.000 C 
BRANCH 113 114
ATOM    114  N   UNK A   1      11.500  41.531  42.842  0.00  0.00    +0.000 N 
ATOM    115  H   UNK A   3      11.132  40.734  43.399  0.00  0.00    +0.000 HD
ATOM    116  C   UNK A   2      11.201  42.784  43.186  0.00  0.00    +0.000 C 
ATOM    117  O   UNK A   2      11.525  43.785  42.486  0.00  0.00    +0.000 OA
BRANCH 116 118
ATOM    118  C   UNK A   2      10.465  42.966  44.495  0.00  0.00    +0.000 C 
BRANCH 118 119
ATOM    119  N   UNK A   2       9.471  41.866  44.640  0.00  0.00    +0.000 N 
ATOM    120  H   UNK A   2       9.527  41.192  45.430  0.00  0.00    +0.000 HD
ATOM    121  C   UNK A   1       8.506  41.775  43.722  0.00  0.00    +0.000 C 
ATOM    122  O   UNK A   1       8.362  42.631  42.830  0.00  0.00    +0.000 OA
BRANCH 121 123
ATOM    123  C   UNK A   1       7.572  40.573  43.799  0.00  0.00    +0.000 C 
ATOM    124  C   UNK A   1       6.221  40.870  43.133  0.00  0.00    +0.000 C 
BRANCH 123 125
ATOM    125  N   UNK A   1       7.391  40.048  45.160  0.00  0.00    +0.000 NA
ATOM    126  H   UNK A   1       7.602  39.046  45.343  0.00  0.00    +0.000 HD
ENDBRANCH 123 125
ENDBRANCH 121 123
ENDBRANCH 118 119
BRANCH 118 127
ATOM    127  C   UNK A   2      11.402  42.998  45.705  0.00  0.00    +0.000 C 
BRANCH 127 128
ATOM    128  C   UNK A   2      12.369  44.186  45.689  0.00  0.00    +0.000 C 
BRANCH 128 129
ATOM    129  C   UNK A   2      13.612  43.993  44.849  0.00  0.00    +0.000 C 
ATOM    130  O   UNK A   2      14.426  44.965  44.771  0.00  0.00    +0.000 OA
ATOM    131  O   UNK A   2      13.898  42.854  44.358  0.00  0.00    +0.000 OA
ENDBRANCH 128 129
ENDBRANCH 127 128
ENDBRANCH 118 127
ENDBRANCH 116 118
ENDBRANCH 113 114
BRANCH 113 132
ATOM    132  C   UNK A   1      11.726  41.699  40.358  0.00  0.00    +0.000 C 
ATOM    133  N   PHE A   4      10.383  41.826  40.411  0.00  0.00    +0.000 N 
ATOM    134  H   PHE A   4       9.888  41.682  41.314  0.00  0.00    +0.000 HD
ATOM    135  O   UNK A   1      12.404  41.856  39.325  0.00  0.00    +0.000 OA
BRANCH 133 136
ATOM    136  CA  PHE A   4       9.622  42.162  39.218  0.00  0.00    +0.000 C 
BRANCH 136 137
ATOM    137  C   PHE A   4       9.273  43.650  39.115  0.00  0.00    +0.000 C 
ATOM    138  N   GLY A   5       9.923  44.469  39.977  0.00  0.00    +0.000 N 
ATOM    139  H   GLY A   5      10.555  44.065  40.697  0.00  0.00    +0.000 HD
ATOM    140  O   PHE A   4       8.413  44.034  38.297  0.00  0.00    +0.000 OA
BRANCH 138 141
ATOM    141  CA  GLY A   5       9.739  45.929  39.900  0.00  0.00    +0.000 C 
BRANCH 141 142
ATOM    142  C   GLY A   5       9.250  46.568  41.178  0.00  0.00    +0.000 C 
ATOM    143  N   LEU A   6       9.628  46.044  42.335  0.00  0.00    +0.000 N 
ATOM    144  H   LEU A   6      10.220  45.189  42.358  0.00  0.00    +0.000 HD
ATOM    145  O   GLY A   5       8.514  47.573  41.106  0.00  0.00    +0.000 OA
BRANCH 143 146
ATOM    146  CA  LEU A   6       9.200  46.685  43.583  0.00  0.00    +0.000 C 
BRANCH 146 147
ATOM    147  C   LEU A   6       7.677  46.565  43.779  0.00  0.00    +0.000 C 
ATOM    148  O   LEU A   6       7.054  47.386  44.485  0.00  0.00    +0.000 OA
ATOM    149  N   LEU A   7       7.091  45.509  43.217  0.00  0.00    +0.000 N 
ATOM    150  H   LEU A   7       7.655  44.704  42.877  0.00  0.00    +0.000 HD
BRANCH 149 151
ATOM    151  CA  LEU A   7       5.607  45.512  43.089  0.00  0.00    +0.000 C 
BRANCH 151 152
ATOM    152  C   LEU A   7       4.891  45.385  44.431  0.00  0.00    +0.000 C 
ATOM    153  O   LEU A   7       3.893  46.108  44.613  0.00  0.00    +0.000 OA
ENDBRANCH 151 152
BRANCH 151 154
ATOM    154  CB  LEU A   7       5.174  44.448  42.053  0.00  0.00    +0.000 C 
BRANCH 154 155
ATOM    155  CG  LEU A   7       5.869  44.479  40.690  0.00  0.00    +0.000 C 
ATOM    156  CD2 LEU A   7       5.745  45.855  39.986  0.00  0.00    +0.000 C 
ATOM    157  CD1 LEU A   7       5.237  43.404  39.823  0.00  0.00    +0.000 C 
ENDBRANCH 154 155
ENDBRANCH 151 154
ENDBRANCH 149 151
ENDBRANCH 146 147
BRANCH 146 158
ATOM    158  CB  LEU A   6       9.609  48.172  43.603  0.00  0.00    +0.000 C 
BRANCH 158 159
ATOM    159  CG  LEU A   6      11.070  48.479  43.237  0.00  0.00    +0.000 C 
ATOM    160  CD2 LEU A   6      12.013  47.546  43.965  0.00  0.00    +0.000 C 
ATOM    161  CD1 LEU A   6      11.395  49.919  43.617  0.00  0.00    +0.000 C 
ENDBRANCH 158 159
ENDBRANCH 146 158
ENDBRANCH 143 146
ENDBRANCH 141 142
ENDBRANCH 138 141
ENDBRANCH 136 137
BRANCH 136 162
ATOM    162  CB  PHE A   4       8.367  41.304  39.147  0.00  0.00    +0.000 C 
BRANCH 162 163
ATOM    163  CG  PHE A   4       8.658  39.860  38.822  0.00  0.00    +0.000 A 
ATOM    164  CD2 PHE A   4       9.000  38.950  39.820  0.00  0.00    +0.000 A 
ATOM    165  CE2 PHE A   4       9.288  37.575  39.499  0.00  0.00    +0.000 A 
ATOM    166  CZ  PHE A   4       9.141  37.135  38.150  0.00  0.00    +0.000 A 
ATOM    167  CE1 PHE A   4       8.804  38.052  37.140  0.00  0.00    +0.000 A 
ATOM    168  CD1 PHE A   4       8.571  39.441  37.505  0.00  0.00    +0.000 A 
ENDBRANCH 162 163
ENDBRANCH 136 162
ENDBRANCH 133 136
ENDBRANCH 113 132
ENDBRANCH 112 113
ENDBRANCH 111 112
ENDBRANCH 109 111
ENDBRANCH 108 109
ENDBRANCH   1 108
TORSDOF 79
REMARK  Name = ../refined-set-2016/2xeg/2xeg_pocket.pdb
REMARK  382 active torsions:
REMARK  status: ('A' for Active; 'I' for Inactive)
REMARK    1  A    between atoms: _1  and  _3
REMARK    2  A    between atoms: _3  and  _4
REMARK    3  A    between atoms: _7  and  _9
REMARK    4  A    between atoms: _9  and  _10
REMARK    5  A    between atoms: _9  and  _12
REMARK    6  A    between atoms: _12  and  _13
REMARK    7  A    between atoms: _19  and  _21
REMARK    8  A    between atoms: _21  and  _22
REMARK    9  A    between atoms: _21  and  _24
REMARK   10  A    between atoms: _24  and  _25
REMARK   11  A    between atoms: _30  and  _31
REMARK   12  A    between atoms: _33  and  _35
REMARK   13  A    between atoms: _35  and  _36
REMARK   14  A    between atoms: _38  and  _40
REMARK   15  A    between atoms: _40  and  _41
REMARK   16  A    between atoms: _40  and  _43
REMARK   17  A    between atoms: _43  and  _44
REMARK   18  A    between atoms: _44  and  _45
REMARK   19  A    between atoms: _45  and  _46
REMARK   20  A    between atoms: _46  and  _47
REMARK   21  A    between atoms: _51  and  _53
REMARK   22  A    between atoms: _53  and  _54
REMARK   23  A    between atoms: _53  and  _56
REMARK   24  A    between atoms: _59  and  _61
REMARK   25  A    between atoms: _61  and  _62
REMARK   26  A    between atoms: _61  and  _64
REMARK   27  A    between atoms: _64  and  _65
REMARK   28  A    between atoms: _71  and  _73
REMARK   29  A    between atoms: _73  and  _74
REMARK   30  A    between atoms: _73  and  _76
REMARK   31  A    between atoms: _76  and  _77
REMARK   32  A    between atoms: _77  and  _78
REMARK   33  A    between atoms: _78  and  _79
REMARK   34  A    between atoms: _88  and  _90
REMARK   35  A    between atoms: _90  and  _91
REMARK   36  A    between atoms: _93  and  _95
REMARK   37  A    between atoms: _95  and  _96
REMARK   38  A    between atoms: _95  and  _98
REMARK   39  A    between atoms: _98  and  _99
REMARK   40  A    between atoms: _99  and  _100
REMARK   41  A    between atoms: _100  and  _101
REMARK   42  A    between atoms: _101  and  _102
REMARK   43  A    between atoms: _106  and  _108
REMARK   44  A    between atoms: _108  and  _109
REMARK   45  A    between atoms: _108  and  _111
REMARK   46  A    between atoms: _111  and  _112
REMARK   47  A    between atoms: _115  and  _117
REMARK   48  A    between atoms: _117  and  _118
REMARK   49  A    between atoms: _117  and  _120
REMARK   50  A    between atoms: _120  and  _121
REMARK   51  A    between atoms: _126  and  _127
REMARK   52  A    between atoms: _129  and  _131
REMARK   53  A    between atoms: _131  and  _132
REMARK   54  A    between atoms: _131  and  _134
REMARK   55  A    between atoms: _134  and  _135
REMARK   56  A    between atoms: _135  and  _136
REMARK   57  A    between atoms: _141  and  _143
REMARK   58  A    between atoms: _143  and  _144
REMARK   59  A    between atoms: _143  and  _146
REMARK   60  A    between atoms: _146  and  _147
REMARK   61  A    between atoms: _147  and  _148
REMARK   62  A    between atoms: _148  and  _149
REMARK   63  A    between atoms: _158  and  _160
REMARK   64  A    between atoms: _160  and  _161
REMARK   65  A    between atoms: _163  and  _165
REMARK   66  A    between atoms: _165  and  _166
REMARK   67  A    between atoms: _165  and  _168
REMARK   68  A    between atoms: _168  and  _169
REMARK   69  A    between atoms: _174  and  _176
REMARK   70  A    between atoms: _176  and  _177
REMARK   71  A    between atoms: _176  and  _179
REMARK   72  A    between atoms: _179  and  _180
REMARK   73  A    between atoms: _183  and  _185
REMARK   74  A    between atoms: _185  and  _186
REMARK   75  A    between atoms: _185  and  _188
REMARK   76  A    between atoms: _188  and  _189
REMARK   77  A    between atoms: _192  and  _194
REMARK   78  A    between atoms: _194  and  _195
REMARK   79  A    between atoms: _194  and  _197
REMARK   80  A    between atoms: _197  and  _198
REMARK   81  A    between atoms: _203  and  _205
REMARK   82  A    between atoms: _205  and  _206
REMARK   83  A    between atoms: _205  and  _208
REMARK   84  A    between atoms: _208  and  _209
REMARK   85  A    between atoms: _212  and  _214
REMARK   86  A    between atoms: _214  and  _215
REMARK   87  A    between atoms: _214  and  _217
REMARK   88  A    between atoms: _217  and  _218
REMARK   89  A    between atoms: _223  and  _225
REMARK   90  A    between atoms: _225  and  _226
REMARK   91  A    between atoms: _228  and  _230
REMARK   92  A    between atoms: _230  and  _231
REMARK   93  A    between atoms: _230  and  _233
REMARK   94  A    between atoms: _233  and  _234
REMARK   95  A    between atoms: _238  and  ZN_939
REMARK   96  A    between atoms: _239  and  _241
REMARK   97  A    between atoms: _241  and  _242
REMARK   98  A    between atoms: _241  and  _244
REMARK   99  A    between atoms: _244  and  _245
REMARK  100  A    between atoms: _248  and  _250
REMARK  101  A    between atoms: _250  and  _251
REMARK  102  A    between atoms: _250  and  _253
REMARK  103  A    between atoms: _253  and  _254
REMARK  104  A    between atoms: _264  and  _266
REMARK  105  A    between atoms: _266  and  _267
REMARK  106  A    between atoms: _266  and  _269
REMARK  107  A    between atoms: _269  and  _270
REMARK  108  A    between atoms: _273  and  _275
REMARK  109  A    between atoms: _275  and  _276
REMARK  110  A    between atoms: _275  and  _278
REMARK  111  A    between atoms: _278  and  _279
REMARK  112  A    between atoms: _279  and  _280
REMARK  113  A    between atoms: _279  and  _281
REMARK  114  A    between atoms: _280  and  ZN_939
REMARK  115  A    between atoms: _281  and  ZN_938
REMARK  116  A    between atoms: _283  and  _284
REMARK  117  A    between atoms: _289  and  _291
REMARK  118  A    between atoms: _291  and  _292
REMARK  119  A    between atoms: _295  and  _297
REMARK  120  A    between atoms: _297  and  _298
REMARK  121  A    between atoms: _297  and  _300
REMARK  122  A    between atoms: _300  and  _301
REMARK  123  A    between atoms: _301  and  _302
REMARK  124  A    between atoms: _305  and  _307
REMARK  125  A    between atoms: _307  and  _308
REMARK  126  A    between atoms: _307  and  _310
REMARK  127  A    between atoms: _310  and  _311
REMARK  128  A    between atoms: _311  and  _312
REMARK  129  A    between atoms: _312  and  _314
REMARK  130  A    between atoms: _314  and  ZN_938
REMARK  131  A    between atoms: _315  and  _317
REMARK  132  A    between atoms: _317  and  _318
REMARK  133  A    between atoms: _317  and  _320
REMARK  134  A    between atoms: _320  and  _321
REMARK  135  A    between atoms: _327  and  _329
REMARK  136  A    between atoms: _329  and  _330
REMARK  137  A    between atoms: _332  and  _334
REMARK  138  A    between atoms: _334  and  _335
REMARK  139  A    between atoms: _334  and  _337
REMARK  140  A    between atoms: _337  and  _338
REMARK  141  A    between atoms: _341  and  _343
REMARK  142  A    between atoms: _343  and  _344
REMARK  143  A    between atoms: _343  and  _346
REMARK  144  A    between atoms: _346  and  _347
REMARK  145  A    between atoms: _350  and  _352
REMARK  146  A    between atoms: _352  and  _353
REMARK  147  A    between atoms: _352  and  _355
REMARK  148  A    between atoms: _355  and  _356
REMARK  149  A    between atoms: _361  and  _363
REMARK  150  A    between atoms: _363  and  _364
REMARK  151  A    between atoms: _363  and  _366
REMARK  152  A    between atoms: _366  and  _367
REMARK  153  A    between atoms: _367  and  _369
REMARK  154  A    between atoms: _369  and  ZN_939
REMARK  155  A    between atoms: _370  and  _372
REMARK  156  A    between atoms: _372  and  _373
REMARK  157  A    between atoms: _372  and  _375
REMARK  158  A    between atoms: _375  and  _376
REMARK  159  A    between atoms: _378  and  _380
REMARK  160  A    between atoms: _380  and  _381
REMARK  161  A    between atoms: _380  and  _383
REMARK  162  A    between atoms: _383  and  _384
REMARK  163  A    between atoms: _386  and  _388
REMARK  164  A    between atoms: _388  and  _389
REMARK  165  A    between atoms: _388  and  _391
REMARK  166  A    between atoms: _391  and  _392
REMARK  167  A    between atoms: _395  and  _397
REMARK  168  A    between atoms: _397  and  _398
REMARK  169  A    between atoms: _397  and  _400
REMARK  170  A    between atoms: _400  and  _401
REMARK  171  A    between atoms: _401  and  _402
REMARK  172  A    between atoms: _405  and  _407
REMARK  173  A    between atoms: _407  and  _408
REMARK  174  A    between atoms: _407  and  _410
REMARK  175  A    between atoms: _410  and  _411
REMARK  176  A    between atoms: _416  and  _417
REMARK  177  A    between atoms: _419  and  _421
REMARK  178  A    between atoms: _421  and  _422
REMARK  179  A    between atoms: _421  and  _424
REMARK  180  A    between atoms: _424  and  _425
REMARK  181  A    between atoms: _428  and  _430
REMARK  182  A    between atoms: _430  and  _431
REMARK  183  A    between atoms: _430  and  _433
REMARK  184  A    between atoms: _433  and  _434
REMARK  185  A    between atoms: _437  and  _439
REMARK  186  A    between atoms: _439  and  _440
REMARK  187  A    between atoms: _439  and  _442
REMARK  188  A    between atoms: _442  and  _443
REMARK  189  A    between atoms: _443  and  _444
REMARK  190  A    between atoms: _444  and  _445
REMARK  191  A    between atoms: _454  and  _456
REMARK  192  A    between atoms: _456  and  _457
REMARK  193  A    between atoms: _456  and  _459
REMARK  194  A    between atoms: _462  and  _464
REMARK  195  A    between atoms: _464  and  _465
REMARK  196  A    between atoms: _464  and  _467
REMARK  197  A    between atoms: _467  and  _468
REMARK  198  A    between atoms: _471  and  _473
REMARK  199  A    between atoms: _473  and  _474
REMARK  200  A    between atoms: _473  and  _476
REMARK  201  A    between atoms: _476  and  _477
REMARK  202  A    between atoms: _487  and  _489
REMARK  203  A    between atoms: _489  and  _490
REMARK  204  A    between atoms: _489  and  _492
REMARK  205  A    between atoms: _492  and  _493
REMARK  206  A    between atoms: _493  and  _494
REMARK  207  A    between atoms: _494  and  _495
REMARK  208  A    between atoms: _495  and  _496
REMARK  209  A    between atoms: _500  and  _502
REMARK  210  A    between atoms: _502  and  _503
REMARK  211  A    between atoms: _502  and  _505
REMARK  212  A    between atoms: _505  and  _506
REMARK  213  A    between atoms: _509  and  _510
REMARK  214  A    between atoms: _516  and  _517
REMARK  215  A    between atoms: _522  and  _524
REMARK  216  A    between atoms: _524  and  _525
REMARK  217  A    between atoms: _524  and  _527
REMARK  218  A    between atoms: _527  and  _528
REMARK  219  A    between atoms: _528  and  _529
REMARK  220  A    between atoms: _529  and  _530
REMARK  221  A    between atoms: _539  and  _541
REMARK  222  A    between atoms: _541  and  _542
REMARK  223  A    between atoms: _541  and  _544
REMARK  224  A    between atoms: _544  and  _545
REMARK  225  A    between atoms: _548  and  _550
REMARK  226  A    between atoms: _550  and  _551
REMARK  227  A    between atoms: _550  and  _553
REMARK  228  A    between atoms: _553  and  _554
REMARK  229  A    between atoms: _556  and  _558
REMARK  230  A    between atoms: _558  and  _559
REMARK  231  A    between atoms: _558  and  _561
REMARK  232  A    between atoms: _561  and  _562
REMARK  233  A    between atoms: _562  and  _563
REMARK  234  A    between atoms: _563  and  _564
REMARK  235  A    between atoms: _564  and  _565
REMARK  236  A    between atoms: _569  and  _571
REMARK  237  A    between atoms: _571  and  _572
REMARK  238  A    between atoms: _571  and  _574
REMARK  239  A    between atoms: _574  and  _575
REMARK  240  A    between atoms: _578  and  _580
REMARK  241  A    between atoms: _580  and  _581
REMARK  242  A    between atoms: _583  and  _585
REMARK  243  A    between atoms: _585  and  _586
REMARK  244  A    between atoms: _585  and  _588
REMARK  245  A    between atoms: _588  and  _589
REMARK  246  A    between atoms: _591  and  _593
REMARK  247  A    between atoms: _593  and  _594
REMARK  248  A    between atoms: _596  and  _598
REMARK  249  A    between atoms: _598  and  _599
REMARK  250  A    between atoms: _598  and  _601
REMARK  251  A    between atoms: _601  and  _602
REMARK  252  A    between atoms: _607  and  _609
REMARK  253  A    between atoms: _609  and  _610
REMARK  254  A    between atoms: _609  and  _612
REMARK  255  A    between atoms: _612  and  _613
REMARK  256  A    between atoms: _616  and  _618
REMARK  257  A    between atoms: _618  and  _619
REMARK  258  A    between atoms: _618  and  _621
REMARK  259  A    between atoms: _621  and  _622
REMARK  260  A    between atoms: _628  and  _630
REMARK  261  A    between atoms: _630  and  _631
REMARK  262  A    between atoms: _630  and  _633
REMARK  263  A    between atoms: _633  and  _634
REMARK  264  A    between atoms: _634  and  _635
REMARK  265  A    between atoms: _638  and  _640
REMARK  266  A    between atoms: _640  and  _641
REMARK  267  A    between atoms: _640  and  _643
REMARK  268  A    between atoms: _643  and  _644
REMARK  269  A    between atoms: _644  and  _645
REMARK  270  A    between atoms: _645  and  _646
REMARK  271  A    between atoms: _655  and  _657
REMARK  272  A    between atoms: _657  and  _658
REMARK  273  A    between atoms: _657  and  _660
REMARK  274  A    between atoms: _660  and  _661
REMARK  275  A    between atoms: _661  and  _662
REMARK  276  A    between atoms: _662  and  _663
REMARK  277  A    between atoms: _672  and  _674
REMARK  278  A    between atoms: _674  and  _675
REMARK  279  A    between atoms: _674  and  _677
REMARK  280  A    between atoms: _677  and  _678
REMARK  281  A    between atoms: _683  and  _684
REMARK  282  A    between atoms: _686  and  _688
REMARK  283  A    between atoms: _688  and  _689
REMARK  284  A    between atoms: _688  and  _691
REMARK  285  A    between atoms: _691  and  _692
REMARK  286  A    between atoms: _695  and  _697
REMARK  287  A    between atoms: _697  and  _698
REMARK  288  A    between atoms: _697  and  _700
REMARK  289  A    between atoms: _700  and  _701
REMARK  290  A    between atoms: _701  and  _702
REMARK  291  A    between atoms: _702  and  _703
REMARK  292  A    between atoms: _703  and  _704
REMARK  293  A    between atoms: _708  and  _710
REMARK  294  A    between atoms: _710  and  _711
REMARK  295  A    between atoms: _710  and  _713
REMARK  296  A    between atoms: _713  and  _714
REMARK  297  A    between atoms: _719  and  _721
REMARK  298  A    between atoms: _721  and  _722
REMARK  299  A    between atoms: _721  and  _724
REMARK  300  A    between atoms: _724  and  _725
REMARK  301  A    between atoms: _735  and  _737
REMARK  302  A    between atoms: _737  and  _738
REMARK  303  A    between atoms: _737  and  _740
REMARK  304  A    between atoms: _740  and  _741
REMARK  305  A    between atoms: _741  and  _742
REMARK  306  A    between atoms: _745  and  _747
REMARK  307  A    between atoms: _747  and  _748
REMARK  308  A    between atoms: _747  and  _750
REMARK  309  A    between atoms: _750  and  _751
REMARK  310  A    between atoms: _754  and  _756
REMARK  311  A    between atoms: _756  and  _757
REMARK  312  A    between atoms: _756  and  _759
REMARK  313  A    between atoms: _759  and  _760
REMARK  314  A    between atoms: _765  and  _767
REMARK  315  A    between atoms: _767  and  _768
REMARK  316  A    between atoms: _767  and  _770
REMARK  317  A    between atoms: _770  and  _771
REMARK  318  A    between atoms: _777  and  _779
REMARK  319  A    between atoms: _779  and  _780
REMARK  320  A    between atoms: _779  and  _782
REMARK  321  A    between atoms: _782  and  _783
REMARK  322  A    between atoms: _785  and  _787
REMARK  323  A    between atoms: _787  and  _788
REMARK  324  A    between atoms: _790  and  _792
REMARK  325  A    between atoms: _792  and  _793
REMARK  326  A    between atoms: _792  and  _795
REMARK  327  A    between atoms: _795  and  _796
REMARK  328  A    between atoms: _801  and  _802
REMARK  329  A    between atoms: _804  and  _806
REMARK  330  A    between atoms: _806  and  _807
REMARK  331  A    between atoms: _806  and  _809
REMARK  332  A    between atoms: _809  and  _810
REMARK  333  A    between atoms: _815  and  _816
REMARK  334  A    between atoms: _818  and  _820
REMARK  335  A    between atoms: _820  and  _821
REMARK  336  A    between atoms: _820  and  _823
REMARK  337  A    between atoms: _823  and  _824
REMARK  338  A    between atoms: _828  and  ZN_938
REMARK  339  A    between atoms: _829  and  _831
REMARK  340  A    between atoms: _831  and  _832
REMARK  341  A    between atoms: _831  and  _834
REMARK  342  A    between atoms: _834  and  _835
REMARK  343  A    between atoms: _835  and  _836
REMARK  344  A    between atoms: _839  and  _841
REMARK  345  A    between atoms: _841  and  _842
REMARK  346  A    between atoms: _841  and  _844
REMARK  347  A    between atoms: _844  and  _845
REMARK  348  A    between atoms: _845  and  _846
REMARK  349  A    between atoms: _846  and  _847
REMARK  350  A    between atoms: _856  and  _858
REMARK  351  A    between atoms: _858  and  _859
REMARK  352  A    between atoms: _858  and  _861
REMARK  353  A    between atoms: _861  and  _862
REMARK  354  A    between atoms: _867  and  _868
REMARK  355  A    between atoms: _870  and  _872
REMARK  356  A    between atoms: _872  and  _873
REMARK  357  A    between atoms: _872  and  _875
REMARK  358  A    between atoms: _875  and  _876
REMARK  359  A    between atoms: _878  and  _880
REMARK  360  A    between atoms: _880  and  _881
REMARK  361  A    between atoms: _880  and  _883
REMARK  362  A    between atoms: _883  and  _884
REMARK  363  A    between atoms: _889  and  _891
REMARK  364  A    between atoms: _891  and  _892
REMARK  365  A    between atoms: _891  and  _894
REMARK  366  A    between atoms: _894  and  _895
REMARK  367  A    between atoms: _900  and  _902
REMARK  368  A    between atoms: _902  and  _903
REMARK  369  A    between atoms: _902  and  _905
REMARK  370  A    between atoms: _905  and  _906
REMARK  371  A    between atoms: _906  and  _907
REMARK  372  A    between atoms: _907  and  _908
REMARK  373  A    between atoms: _908  and  _909
REMARK  374  A    between atoms: _913  and  _915
REMARK  375  A    between atoms: _915  and  _916
REMARK  376  A    between atoms: _915  and  _918
REMARK  377  A    between atoms: _918  and  _919
REMARK  378  A    between atoms: _924  and  _925
REMARK  379  A    between atoms: _927  and  _929
REMARK  380  A    between atoms: _929  and  _930
REMARK  381  A    between atoms: _933  and  _935
REMARK  382  A    between atoms: _935  and  _936
REMARK                            x       y       z     vdW  Elec       q    Type
REMARK                         _______ _______ _______ _____ _____    ______ ____
ROOT
ATOM      1  CA  ASP A   1      10.710  36.595  46.575  0.00  0.00    +0.144 C 
ENDROOT
BRANCH   1   2
ATOM      2  N   ASP A   1      10.617  37.286  47.886  0.00  0.00    -0.239 NA
ATOM      3  H   ASP A   1      10.088  38.178  47.963  0.00  0.00    +0.142 HD
ENDBRANCH   1   2
BRANCH   1   4
ATOM      4  C   ASP A   1      12.175  36.613  46.093  0.00  0.00    +0.225 C 
ATOM      5  O   ASP A   1      12.921  37.592  46.302  0.00  0.00    -0.287 OA
ENDBRANCH   1   4
BRANCH   1   6
ATOM      6  CB  ASP A   1       9.867  37.260  45.514  0.00  0.00    +0.139 C 
BRANCH   6   7
ATOM      7  CG  ASP A   1      10.305  38.674  45.208  0.00  0.00    +0.367 C 
ATOM      8  OD2 ASP A   1      10.328  39.530  46.138  0.00  0.00    -0.246 OA
ATOM      9  OD1 ASP A   1      10.520  38.930  44.021  0.00  0.00    -0.246 OA
ENDBRANCH   6   7
ENDBRANCH   1   6
TORSDOF 4
REMARK  Name = ../refined-set-2016/2xeg/2xeg_pocket.pdb
REMARK  382 active torsions:
REMARK  status: ('A' for Active; 'I' for Inactive)
REMARK    1  A    between atoms: _1  and  _3
REMARK    2  A    between atoms: _3  and  _4
REMARK    3  A    between atoms: _7  and  _9
REMARK    4  A    between atoms: _9  and  _10
REMARK    5  A    between atoms: _9  and  _12
REMARK    6  A    between atoms: _12  and  _13
REMARK    7  A    between atoms: _19  and  _21
REMARK    8  A    between atoms: _21  and  _22
REMARK    9  A    between atoms: _21  and  _24
REMARK   10  A    between atoms: _24  and  _25
REMARK   11  A    between atoms: _30  and  _31
REMARK   12  A    between atoms: _33  and  _35
REMARK   13  A    between atoms: _35  and  _36
REMARK   14  A    between atoms: _38  and  _40
REMARK   15  A    between atoms: _40  and  _41
REMARK   16  A    between atoms: _40  and  _43
REMARK   17  A    between atoms: _43  and  _44
REMARK   18  A    between atoms: _44  and  _45
REMARK   19  A    between atoms: _45  and  _46
REMARK   20  A    between atoms: _46  and  _47
REMARK   21  A    between atoms: _51  and  _53
REMARK   22  A    between atoms: _53  and  _54
REMARK   23  A    between atoms: _53  and  _56
REMARK   24  A    between atoms: _59  and  _61
REMARK   25  A    between atoms: _61  and  _62
REMARK   26  A    between atoms: _61  and  _64
REMARK   27  A    between atoms: _64  and  _65
REMARK   28  A    between atoms: _71  and  _73
REMARK   29  A    between atoms: _73  and  _74
REMARK   30  A    between atoms: _73  and  _76
REMARK   31  A    between atoms: _76  and  _77
REMARK   32  A    between atoms: _77  and  _78
REMARK   33  A    between atoms: _78  and  _79
REMARK   34  A    between atoms: _88  and  _90
REMARK   35  A    between atoms: _90  and  _91
REMARK   36  A    between atoms: _93  and  _95
REMARK   37  A    between atoms: _95  and  _96
REMARK   38  A    between atoms: _95  and  _98
REMARK   39  A    between atoms: _98  and  _99
REMARK   40  A    between atoms: _99  and  _100
REMARK   41  A    between atoms: _100  and  _101
REMARK   42  A    between atoms: _101  and  _102
REMARK   43  A    between atoms: _106  and  _108
REMARK   44  A    between atoms: _108  and  _109
REMARK   45  A    between atoms: _108  and  _111
REMARK   46  A    between atoms: _111  and  _112
REMARK   47  A    between atoms: _115  and  _117
REMARK   48  A    between atoms: _117  and  _118
REMARK   49  A    between atoms: _117  and  _120
REMARK   50  A    between atoms: _120  and  _121
REMARK   51  A    between atoms: _126  and  _127
REMARK   52  A    between atoms: _129  and  _131
REMARK   53  A    between atoms: _131  and  _132
REMARK   54  A    between atoms: _131  and  _134
REMARK   55  A    between atoms: _134  and  _135
REMARK   56  A    between atoms: _135  and  _136
REMARK   57  A    between atoms: _141  and  _143
REMARK   58  A    between atoms: _143  and  _144
REMARK   59  A    between atoms: _143  and  _146
REMARK   60  A    between atoms: _146  and  _147
REMARK   61  A    between atoms: _147  and  _148
REMARK   62  A    between atoms: _148  and  _149
REMARK   63  A    between atoms: _158  and  _160
REMARK   64  A    between atoms: _160  and  _161
REMARK   65  A    between atoms: _163  and  _165
REMARK   66  A    between atoms: _165  and  _166
REMARK   67  A    between atoms: _165  and  _168
REMARK   68  A    between atoms: _168  and  _169
REMARK   69  A    between atoms: _174  and  _176
REMARK   70  A    between atoms: _176  and  _177
REMARK   71  A    between atoms: _176  and  _179
REMARK   72  A    between atoms: _179  and  _180
REMARK   73  A    between atoms: _183  and  _185
REMARK   74  A    between atoms: _185  and  _186
REMARK   75  A    between atoms: _185  and  _188
REMARK   76  A    between atoms: _188  and  _189
REMARK   77  A    between atoms: _192  and  _194
REMARK   78  A    between atoms: _194  and  _195
REMARK   79  A    between atoms: _194  and  _197
REMARK   80  A    between atoms: _197  and  _198
REMARK   81  A    between atoms: _203  and  _205
REMARK   82  A    between atoms: _205  and  _206
REMARK   83  A    between atoms: _205  and  _208
REMARK   84  A    between atoms: _208  and  _209
REMARK   85  A    between atoms: _212  and  _214
REMARK   86  A    between atoms: _214  and  _215
REMARK   87  A    between atoms: _214  and  _217
REMARK   88  A    between atoms: _217  and  _218
REMARK   89  A    between atoms: _223  and  _225
REMARK   90  A    between atoms: _225  and  _226
REMARK   91  A    between atoms: _228  and  _230
REMARK   92  A    between atoms: _230  and  _231
REMARK   93  A    between atoms: _230  and  _233
REMARK   94  A    between atoms: _233  and  _234
REMARK   95  A    between atoms: _238  and  ZN_939
REMARK   96  A    between atoms: _239  and  _241
REMARK   97  A    between atoms: _241  and  _242
REMARK   98  A    between atoms: _241  and  _244
REMARK   99  A    between atoms: _244  and  _245
REMARK  100  A    between atoms: _248  and  _250
REMARK  101  A    between atoms: _250  and  _251
REMARK  102  A    between atoms: _250  and  _253
REMARK  103  A    between atoms: _253  and  _254
REMARK  104  A    between atoms: _264  and  _266
REMARK  105  A    between atoms: _266  and  _267
REMARK  106  A    between atoms: _266  and  _269
REMARK  107  A    between atoms: _269  and  _270
REMARK  108  A    between atoms: _273  and  _275
REMARK  109  A    between atoms: _275  and  _276
REMARK  110  A    between atoms: _275  and  _278
REMARK  111  A    between atoms: _278  and  _279
REMARK  112  A    between atoms: _279  and  _280
REMARK  113  A    between atoms: _279  and  _281
REMARK  114  A    between atoms: _280  and  ZN_939
REMARK  115  A    between atoms: _281  and  ZN_938
REMARK  116  A    between atoms: _283  and  _284
REMARK  117  A    between atoms: _289  and  _291
REMARK  118  A    between atoms: _291  and  _292
REMARK  119  A    between atoms: _295  and  _297
REMARK  120  A    between atoms: _297  and  _298
REMARK  121  A    between atoms: _297  and  _300
REMARK  122  A    between atoms: _300  and  _301
REMARK  123  A    between atoms: _301  and  _302
REMARK  124  A    between atoms: _305  and  _307
REMARK  125  A    between atoms: _307  and  _308
REMARK  126  A    between atoms: _307  and  _310
REMARK  127  A    between atoms: _310  and  _311
REMARK  128  A    between atoms: _311  and  _312
REMARK  129  A    between atoms: _312  and  _314
REMARK  130  A    between atoms: _314  and  ZN_938
REMARK  131  A    between atoms: _315  and  _317
REMARK  132  A    between atoms: _317  and  _318
REMARK  133  A    between atoms: _317  and  _320
REMARK  134  A    between atoms: _320  and  _321
REMARK  135  A    between atoms: _327  and  _329
REMARK  136  A    between atoms: _329  and  _330
REMARK  137  A    between atoms: _332  and  _334
REMARK  138  A    between atoms: _334  and  _335
REMARK  139  A    between atoms: _334  and  _337
REMARK  140  A    between atoms: _337  and  _338
REMARK  141  A    between atoms: _341  and  _343
REMARK  142  A    between atoms: _343  and  _344
REMARK  143  A    between atoms: _343  and  _346
REMARK  144  A    between atoms: _346  and  _347
REMARK  145  A    between atoms: _350  and  _352
REMARK  146  A    between atoms: _352  and  _353
REMARK  147  A    between atoms: _352  and  _355
REMARK  148  A    between atoms: _355  and  _356
REMARK  149  A    between atoms: _361  and  _363
REMARK  150  A    between atoms: _363  and  _364
REMARK  151  A    between atoms: _363  and  _366
REMARK  152  A    between atoms: _366  and  _367
REMARK  153  A    between atoms: _367  and  _369
REMARK  154  A    between atoms: _369  and  ZN_939
REMARK  155  A    between atoms: _370  and  _372
REMARK  156  A    between atoms: _372  and  _373
REMARK  157  A    between atoms: _372  and  _375
REMARK  158  A    between atoms: _375  and  _376
REMARK  159  A    between atoms: _378  and  _380
REMARK  160  A    between atoms: _380  and  _381
REMARK  161  A    between atoms: _380  and  _383
REMARK  162  A    between atoms: _383  and  _384
REMARK  163  A    between atoms: _386  and  _388
REMARK  164  A    between atoms: _388  and  _389
REMARK  165  A    between atoms: _388  and  _391
REMARK  166  A    between atoms: _391  and  _392
REMARK  167  A    between atoms: _395  and  _397
REMARK  168  A    between atoms: _397  and  _398
REMARK  169  A    between atoms: _397  and  _400
REMARK  170  A    between atoms: _400  and  _401
REMARK  171  A    between atoms: _401  and  _402
REMARK  172  A    between atoms: _405  and  _407
REMARK  173  A    between atoms: _407  and  _408
REMARK  174  A    between atoms: _407  and  _410
REMARK  175  A    between atoms: _410  and  _411
REMARK  176  A    between atoms: _416  and  _417
REMARK  177  A    between atoms: _419  and  _421
REMARK  178  A    between atoms: _421  and  _422
REMARK  179  A    between atoms: _421  and  _424
REMARK  180  A    between atoms: _424  and  _425
REMARK  181  A    between atoms: _428  and  _430
REMARK  182  A    between atoms: _430  and  _431
REMARK  183  A    between atoms: _430  and  _433
REMARK  184  A    between atoms: _433  and  _434
REMARK  185  A    between atoms: _437  and  _439
REMARK  186  A    between atoms: _439  and  _440
REMARK  187  A    between atoms: _439  and  _442
REMARK  188  A    between atoms: _442  and  _443
REMARK  189  A    between atoms: _443  and  _444
REMARK  190  A    between atoms: _444  and  _445
REMARK  191  A    between atoms: _454  and  _456
REMARK  192  A    between atoms: _456  and  _457
REMARK  193  A    between atoms: _456  and  _459
REMARK  194  A    between atoms: _462  and  _464
REMARK  195  A    between atoms: _464  and  _465
REMARK  196  A    between atoms: _464  and  _467
REMARK  197  A    between atoms: _467  and  _468
REMARK  198  A    between atoms: _471  and  _473
REMARK  199  A    between atoms: _473  and  _474
REMARK  200  A    between atoms: _473  and  _476
REMARK  201  A    between atoms: _476  and  _477
REMARK  202  A    between atoms: _487  and  _489
REMARK  203  A    between atoms: _489  and  _490
REMARK  204  A    between atoms: _489  and  _492
REMARK  205  A    between atoms: _492  and  _493
REMARK  206  A    between atoms: _493  and  _494
REMARK  207  A    between atoms: _494  and  _495
REMARK  208  A    between atoms: _495  and  _496
REMARK  209  A    between atoms: _500  and  _502
REMARK  210  A    between atoms: _502  and  _503
REMARK  211  A    between atoms: _502  and  _505
REMARK  212  A    between atoms: _505  and  _506
REMARK  213  A    between atoms: _509  and  _510
REMARK  214  A    between atoms: _516  and  _517
REMARK  215  A    between atoms: _522  and  _524
REMARK  216  A    between atoms: _524  and  _525
REMARK  217  A    between atoms: _524  and  _527
REMARK  218  A    between atoms: _527  and  _528
REMARK  219  A    between atoms: _528  and  _529
REMARK  220  A    between atoms: _529  and  _530
REMARK  221  A    between atoms: _539  and  _541
REMARK  222  A    between atoms: _541  and  _542
REMARK  223  A    between atoms: _541  and  _544
REMARK  224  A    between atoms: _544  and  _545
REMARK  225  A    between atoms: _548  and  _550
REMARK  226  A    between atoms: _550  and  _551
REMARK  227  A    between atoms: _550  and  _553
REMARK  228  A    between atoms: _553  and  _554
REMARK  229  A    between atoms: _556  and  _558
REMARK  230  A    between atoms: _558  and  _559
REMARK  231  A    between atoms: _558  and  _561
REMARK  232  A    between atoms: _561  and  _562
REMARK  233  A    between atoms: _562  and  _563
REMARK  234  A    between atoms: _563  and  _564
REMARK  235  A    between atoms: _564  and  _565
REMARK  236  A    between atoms: _569  and  _571
REMARK  237  A    between atoms: _571  and  _572
REMARK  238  A    between atoms: _571  and  _574
REMARK  239  A    between atoms: _574  and  _575
REMARK  240  A    between atoms: _578  and  _580
REMARK  241  A    between atoms: _580  and  _581
REMARK  242  A    between atoms: _583  and  _585
REMARK  243  A    between atoms: _585  and  _586
REMARK  244  A    between atoms: _585  and  _588
REMARK  245  A    between atoms: _588  and  _589
REMARK  246  A    between atoms: _591  and  _593
REMARK  247  A    between atoms: _593  and  _594
REMARK  248  A    between atoms: _596  and  _598
REMARK  249  A    between atoms: _598  and  _599
REMARK  250  A    between atoms: _598  and  _601
REMARK  251  A    between atoms: _601  and  _602
REMARK  252  A    between atoms: _607  and  _609
REMARK  253  A    between atoms: _609  and  _610
REMARK  254  A    between atoms: _609  and  _612
REMARK  255  A    between atoms: _612  and  _613
REMARK  256  A    between atoms: _616  and  _618
REMARK  257  A    between atoms: _618  and  _619
REMARK  258  A    between atoms: _618  and  _621
REMARK  259  A    between atoms: _621  and  _622
REMARK  260  A    between atoms: _628  and  _630
REMARK  261  A    between atoms: _630  and  _631
REMARK  262  A    between atoms: _630  and  _633
REMARK  263  A    between atoms: _633  and  _634
REMARK  264  A    between atoms: _634  and  _635
REMARK  265  A    between atoms: _638  and  _640
REMARK  266  A    between atoms: _640  and  _641
REMARK  267  A    between atoms: _640  and  _643
REMARK  268  A    between atoms: _643  and  _644
REMARK  269  A    between atoms: _644  and  _645
REMARK  270  A    between atoms: _645  and  _646
REMARK  271  A    between atoms: _655  and  _657
REMARK  272  A    between atoms: _657  and  _658
REMARK  273  A    between atoms: _657  and  _660
REMARK  274  A    between atoms: _660  and  _661
REMARK  275  A    between atoms: _661  and  _662
REMARK  276  A    between atoms: _662  and  _663
REMARK  277  A    between atoms: _672  and  _674
REMARK  278  A    between atoms: _674  and  _675
REMARK  279  A    between atoms: _674  and  _677
REMARK  280  A    between atoms: _677  and  _678
REMARK  281  A    between atoms: _683  and  _684
REMARK  282  A    between atoms: _686  and  _688
REMARK  283  A    between atoms: _688  and  _689
REMARK  284  A    between atoms: _688  and  _691
REMARK  285  A    between atoms: _691  and  _692
REMARK  286  A    between atoms: _695  and  _697
REMARK  287  A    between atoms: _697  and  _698
REMARK  288  A    between atoms: _697  and  _700
REMARK  289  A    between atoms: _700  and  _701
REMARK  290  A    between atoms: _701  and  _702
REMARK  291  A    between atoms: _702  and  _703
REMARK  292  A    between atoms: _703  and  _704
REMARK  293  A    between atoms: _708  and  _710
REMARK  294  A    between atoms: _710  and  _711
REMARK  295  A    between atoms: _710  and  _713
REMARK  296  A    between atoms: _713  and  _714
REMARK  297  A    between atoms: _719  and  _721
REMARK  298  A    between atoms: _721  and  _722
REMARK  299  A    between atoms: _721  and  _724
REMARK  300  A    between atoms: _724  and  _725
REMARK  301  A    between atoms: _735  and  _737
REMARK  302  A    between atoms: _737  and  _738
REMARK  303  A    between atoms: _737  and  _740
REMARK  304  A    between atoms: _740  and  _741
REMARK  305  A    between atoms: _741  and  _742
REMARK  306  A    between atoms: _745  and  _747
REMARK  307  A    between atoms: _747  and  _748
REMARK  308  A    between atoms: _747  and  _750
REMARK  309  A    between atoms: _750  and  _751
REMARK  310  A    between atoms: _754  and  _756
REMARK  311  A    between atoms: _756  and  _757
REMARK  312  A    between atoms: _756  and  _759
REMARK  313  A    between atoms: _759  and  _760
REMARK  314  A    between atoms: _765  and  _767
REMARK  315  A    between atoms: _767  and  _768
REMARK  316  A    between atoms: _767  and  _770
REMARK  317  A    between atoms: _770  and  _771
REMARK  318  A    between atoms: _777  and  _779
REMARK  319  A    between atoms: _779  and  _780
REMARK  320  A    between atoms: _779  and  _782
REMARK  321  A    between atoms: _782  and  _783
REMARK  322  A    between atoms: _785  and  _787
REMARK  323  A    between atoms: _787  and  _788
REMARK  324  A    between atoms: _790  and  _792
REMARK  325  A    between atoms: _792  and  _793
REMARK  326  A    between atoms: _792  and  _795
REMARK  327  A    between atoms: _795  and  _796
REMARK  328  A    between atoms: _801  and  _802
REMARK  329  A    between atoms: _804  and  _806
REMARK  330  A    between atoms: _806  and  _807
REMARK  331  A    between atoms: _806  and  _809
REMARK  332  A    between atoms: _809  and  _810
REMARK  333  A    between atoms: _815  and  _816
REMARK  334  A    between atoms: _818  and  _820
REMARK  335  A    between atoms: _820  and  _821
REMARK  336  A    between atoms: _820  and  _823
REMARK  337  A    between atoms: _823  and  _824
REMARK  338  A    between atoms: _828  and  ZN_938
REMARK  339  A    between atoms: _829  and  _831
REMARK  340  A    between atoms: _831  and  _832
REMARK  341  A    between atoms: _831  and  _834
REMARK  342  A    between atoms: _834  and  _835
REMARK  343  A    between atoms: _835  and  _836
REMARK  344  A    between atoms: _839  and  _841
REMARK  345  A    between atoms: _841  and  _842
REMARK  346  A    between atoms: _841  and  _844
REMARK  347  A    between atoms: _844  and  _845
REMARK  348  A    between atoms: _845  and  _846
REMARK  349  A    between atoms: _846  and  _847
REMARK  350  A    between atoms: _856  and  _858
REMARK  351  A    between atoms: _858  and  _859
REMARK  352  A    between atoms: _858  and  _861
REMARK  353  A    between atoms: _861  and  _862
REMARK  354  A    between atoms: _867  and  _868
REMARK  355  A    between atoms: _870  and  _872
REMARK  356  A    between atoms: _872  and  _873
REMARK  357  A    between atoms: _872  and  _875
REMARK  358  A    between atoms: _875  and  _876
REMARK  359  A    between atoms: _878  and  _880
REMARK  360  A    between atoms: _880  and  _881
REMARK  361  A    between atoms: _880  and  _883
REMARK  362  A    between atoms: _883  and  _884
REMARK  363  A    between atoms: _889  and  _891
REMARK  364  A    between atoms: _891  and  _892
REMARK  365  A    between atoms: _891  and  _894
REMARK  366  A    between atoms: _894  and  _895
REMARK  367  A    between atoms: _900  and  _902
REMARK  368  A    between atoms: _902  and  _903
REMARK  369  A    between atoms: _902  and  _905
REMARK  370  A    between atoms: _905  and  _906
REMARK  371  A    between atoms: _906  and  _907
REMARK  372  A    between atoms: _907  and  _908
REMARK  373  A    between atoms: _908  and  _909
REMARK  374  A    between atoms: _913  and  _915
REMARK  375  A    between atoms: _915  and  _916
REMARK  376  A    between atoms: _915  and  _918
REMARK  377  A    between atoms: _918  and  _919
REMARK  378  A    between atoms: _924  and  _925
REMARK  379  A    between atoms: _927  and  _929
REMARK  380  A    between atoms: _929  and  _930
REMARK  381  A    between atoms: _933  and  _935
REMARK  382  A    between atoms: _935  and  _936
REMARK                            x       y       z     vdW  Elec       q    Type
REMARK                         _______ _______ _______ _____ _____    ______ ____
ROOT
ATOM      1  CG  TRP A   1      15.739  36.645  39.976  0.00  0.00    -0.002 A 
ATOM      2  CD1 TRP A   1      16.257  37.931  40.260  0.00  0.00    +0.068 A 
ATOM      3  NE1 TRP A   1      15.490  38.898  39.602  0.00  0.00    -0.352 N 
ATOM      4  HE1 TRP A   1      15.633  39.927  39.651  0.00  0.00    +0.166 HD
ATOM      5  CE2 TRP A   1      14.512  38.252  38.877  0.00  0.00    +0.056 A 
ATOM      6  CZ2 TRP A   1      13.486  38.787  38.104  0.00  0.00    +0.017 A 
ATOM      7  CH2 TRP A   1      12.601  37.920  37.506  0.00  0.00    +0.001 A 
ATOM      8  CZ3 TRP A   1      12.694  36.520  37.685  0.00  0.00    +0.000 A 
ATOM      9  CE3 TRP A   1      13.717  35.977  38.463  0.00  0.00    +0.001 A 
ATOM     10  CD2 TRP A   1      14.629  36.851  39.106  0.00  0.00    +0.013 A 
ENDROOT
BRANCH   1  11
ATOM     11  CB  TRP A   1      16.200  35.305  40.496  0.00  0.00    +0.053 C 
BRANCH  11  12
ATOM     12  CA  TRP A   1      15.039  34.671  41.333  0.00  0.00    +0.137 C 
BRANCH  12  13
ATOM     13  N   TRP A   1      15.011  35.214  42.715  0.00  0.00    -0.239 NA
ATOM     14  H   TRP A   1      15.827  35.731  43.100  0.00  0.00    +0.142 HD
ENDBRANCH  12  13
BRANCH  12  15
ATOM     15  C   TRP A   1      15.147  33.140  41.366  0.00  0.00    +0.224 C 
ATOM     16  O   TRP A   1      14.410  32.456  40.677  0.00  0.00    -0.287 OA
ENDBRANCH  12  15
ENDBRANCH  11  12
ENDBRANCH   1  11
TORSDOF 4
REMARK  Name = ../refined-set-2016/2xeg/2xeg_pocket.pdb
REMARK  382 active torsions:
REMARK  status: ('A' for Active; 'I' for Inactive)
REMARK    1  A    between atoms: _1  and  _3
REMARK    2  A    between atoms: _3  and  _4
REMARK    3  A    between atoms: _7  and  _9
REMARK    4  A    between atoms: _9  and  _10
REMARK    5  A    between atoms: _9  and  _12
REMARK    6  A    between atoms: _12  and  _13
REMARK    7  A    between atoms: _19  and  _21
REMARK    8  A    between atoms: _21  and  _22
REMARK    9  A    between atoms: _21  and  _24
REMARK   10  A    between atoms: _24  and  _25
REMARK   11  A    between atoms: _30  and  _31
REMARK   12  A    between atoms: _33  and  _35
REMARK   13  A    between atoms: _35  and  _36
REMARK   14  A    between atoms: _38  and  _40
REMARK   15  A    between atoms: _40  and  _41
REMARK   16  A    between atoms: _40  and  _43
REMARK   17  A    between atoms: _43  and  _44
REMARK   18  A    between atoms: _44  and  _45
REMARK   19  A    between atoms: _45  and  _46
REMARK   20  A    between atoms: _46  and  _47
REMARK   21  A    between atoms: _51  and  _53
REMARK   22  A    between atoms: _53  and  _54
REMARK   23  A    between atoms: _53  and  _56
REMARK   24  A    between atoms: _59  and  _61
REMARK   25  A    between atoms: _61  and  _62
REMARK   26  A    between atoms: _61  and  _64
REMARK   27  A    between atoms: _64  and  _65
REMARK   28  A    between atoms: _71  and  _73
REMARK   29  A    between atoms: _73  and  _74
REMARK   30  A    between atoms: _73  and  _76
REMARK   31  A    between atoms: _76  and  _77
REMARK   32  A    between atoms: _77  and  _78
REMARK   33  A    between atoms: _78  and  _79
REMARK   34  A    between atoms: _88  and  _90
REMARK   35  A    between atoms: _90  and  _91
REMARK   36  A    between atoms: _93  and  _95
REMARK   37  A    between atoms: _95  and  _96
REMARK   38  A    between atoms: _95  and  _98
REMARK   39  A    between atoms: _98  and  _99
REMARK   40  A    between atoms: _99  and  _100
REMARK   41  A    between atoms: _100  and  _101
REMARK   42  A    between atoms: _101  and  _102
REMARK   43  A    between atoms: _106  and  _108
REMARK   44  A    between atoms: _108  and  _109
REMARK   45  A    between atoms: _108  and  _111
REMARK   46  A    between atoms: _111  and  _112
REMARK   47  A    between atoms: _115  and  _117
REMARK   48  A    between atoms: _117  and  _118
REMARK   49  A    between atoms: _117  and  _120
REMARK   50  A    between atoms: _120  and  _121
REMARK   51  A    between atoms: _126  and  _127
REMARK   52  A    between atoms: _129  and  _131
REMARK   53  A    between atoms: _131  and  _132
REMARK   54  A    between atoms: _131  and  _134
REMARK   55  A    between atoms: _134  and  _135
REMARK   56  A    between atoms: _135  and  _136
REMARK   57  A    between atoms: _141  and  _143
REMARK   58  A    between atoms: _143  and  _144
REMARK   59  A    between atoms: _143  and  _146
REMARK   60  A    between atoms: _146  and  _147
REMARK   61  A    between atoms: _147  and  _148
REMARK   62  A    between atoms: _148  and  _149
REMARK   63  A    between atoms: _158  and  _160
REMARK   64  A    between atoms: _160  and  _161
REMARK   65  A    between atoms: _163  and  _165
REMARK   66  A    between atoms: _165  and  _166
REMARK   67  A    between atoms: _165  and  _168
REMARK   68  A    between atoms: _168  and  _169
REMARK   69  A    between atoms: _174  and  _176
REMARK   70  A    between atoms: _176  and  _177
REMARK   71  A    between atoms: _176  and  _179
REMARK   72  A    between atoms: _179  and  _180
REMARK   73  A    between atoms: _183  and  _185
REMARK   74  A    between atoms: _185  and  _186
REMARK   75  A    between atoms: _185  and  _188
REMARK   76  A    between atoms: _188  and  _189
REMARK   77  A    between atoms: _192  and  _194
REMARK   78  A    between atoms: _194  and  _195
REMARK   79  A    between atoms: _194  and  _197
REMARK   80  A    between atoms: _197  and  _198
REMARK   81  A    between atoms: _203  and  _205
REMARK   82  A    between atoms: _205  and  _206
REMARK   83  A    between atoms: _205  and  _208
REMARK   84  A    between atoms: _208  and  _209
REMARK   85  A    between atoms: _212  and  _214
REMARK   86  A    between atoms: _214  and  _215
REMARK   87  A    between atoms: _214  and  _217
REMARK   88  A    between atoms: _217  and  _218
REMARK   89  A    between atoms: _223  and  _225
REMARK   90  A    between atoms: _225  and  _226
REMARK   91  A    between atoms: _228  and  _230
REMARK   92  A    between atoms: _230  and  _231
REMARK   93  A    between atoms: _230  and  _233
REMARK   94  A    between atoms: _233  and  _234
REMARK   95  A    between atoms: _238  and  ZN_939
REMARK   96  A    between atoms: _239  and  _241
REMARK   97  A    between atoms: _241  and  _242
REMARK   98  A    between atoms: _241  and  _244
REMARK   99  A    between atoms: _244  and  _245
REMARK  100  A    between atoms: _248  and  _250
REMARK  101  A    between atoms: _250  and  _251
REMARK  102  A    between atoms: _250  and  _253
REMARK  103  A    between atoms: _253  and  _254
REMARK  104  A    between atoms: _264  and  _266
REMARK  105  A    between atoms: _266  and  _267
REMARK  106  A    between atoms: _266  and  _269
REMARK  107  A    between atoms: _269  and  _270
REMARK  108  A    between atoms: _273  and  _275
REMARK  109  A    between atoms: _275  and  _276
REMARK  110  A    between atoms: _275  and  _278
REMARK  111  A    between atoms: _278  and  _279
REMARK  112  A    between atoms: _279  and  _280
REMARK  113  A    between atoms: _279  and  _281
REMARK  114  A    between atoms: _280  and  ZN_939
REMARK  115  A    between atoms: _281  and  ZN_938
REMARK  116  A    between atoms: _283  and  _284
REMARK  117  A    between atoms: _289  and  _291
REMARK  118  A    between atoms: _291  and  _292
REMARK  119  A    between atoms: _295  and  _297
REMARK  120  A    between atoms: _297  and  _298
REMARK  121  A    between atoms: _297  and  _300
REMARK  122  A    between atoms: _300  and  _301
REMARK  123  A    between atoms: _301  and  _302
REMARK  124  A    between atoms: _305  and  _307
REMARK  125  A    between atoms: _307  and  _308
REMARK  126  A    between atoms: _307  and  _310
REMARK  127  A    between atoms: _310  and  _311
REMARK  128  A    between atoms: _311  and  _312
REMARK  129  A    between atoms: _312  and  _314
REMARK  130  A    between atoms: _314  and  ZN_938
REMARK  131  A    between atoms: _315  and  _317
REMARK  132  A    between atoms: _317  and  _318
REMARK  133  A    between atoms: _317  and  _320
REMARK  134  A    between atoms: _320  and  _321
REMARK  135  A    between atoms: _327  and  _329
REMARK  136  A    between atoms: _329  and  _330
REMARK  137  A    between atoms: _332  and  _334
REMARK  138  A    between atoms: _334  and  _335
REMARK  139  A    between atoms: _334  and  _337
REMARK  140  A    between atoms: _337  and  _338
REMARK  141  A    between atoms: _341  and  _343
REMARK  142  A    between atoms: _343  and  _344
REMARK  143  A    between atoms: _343  and  _346
REMARK  144  A    between atoms: _346  and  _347
REMARK  145  A    between atoms: _350  and  _352
REMARK  146  A    between atoms: _352  and  _353
REMARK  147  A    between atoms: _352  and  _355
REMARK  148  A    between atoms: _355  and  _356
REMARK  149  A    between atoms: _361  and  _363
REMARK  150  A    between atoms: _363  and  _364
REMARK  151  A    between atoms: _363  and  _366
REMARK  152  A    between atoms: _366  and  _367
REMARK  153  A    between atoms: _367  and  _369
REMARK  154  A    between atoms: _369  and  ZN_939
REMARK  155  A    between atoms: _370  and  _372
REMARK  156  A    between atoms: _372  and  _373
REMARK  157  A    between atoms: _372  and  _375
REMARK  158  A    between atoms: _375  and  _376
REMARK  159  A    between atoms: _378  and  _380
REMARK  160  A    between atoms: _380  and  _381
REMARK  161  A    between atoms: _380  and  _383
REMARK  162  A    between atoms: _383  and  _384
REMARK  163  A    between atoms: _386  and  _388
REMARK  164  A    between atoms: _388  and  _389
REMARK  165  A    between atoms: _388  and  _391
REMARK  166  A    between atoms: _391  and  _392
REMARK  167  A    between atoms: _395  and  _397
REMARK  168  A    between atoms: _397  and  _398
REMARK  169  A    between atoms: _397  and  _400
REMARK  170  A    between atoms: _400  and  _401
REMARK  171  A    between atoms: _401  and  _402
REMARK  172  A    between atoms: _405  and  _407
REMARK  173  A    between atoms: _407  and  _408
REMARK  174  A    between atoms: _407  and  _410
REMARK  175  A    between atoms: _410  and  _411
REMARK  176  A    between atoms: _416  and  _417
REMARK  177  A    between atoms: _419  and  _421
REMARK  178  A    between atoms: _421  and  _422
REMARK  179  A    between atoms: _421  and  _424
REMARK  180  A    between atoms: _424  and  _425
REMARK  181  A    between atoms: _428  and  _430
REMARK  182  A    between atoms: _430  and  _431
REMARK  183  A    between atoms: _430  and  _433
REMARK  184  A    between atoms: _433  and  _434
REMARK  185  A    between atoms: _437  and  _439
REMARK  186  A    between atoms: _439  and  _440
REMARK  187  A    between atoms: _439  and  _442
REMARK  188  A    between atoms: _442  and  _443
REMARK  189  A    between atoms: _443  and  _444
REMARK  190  A    between atoms: _444  and  _445
REMARK  191  A    between atoms: _454  and  _456
REMARK  192  A    between atoms: _456  and  _457
REMARK  193  A    between atoms: _456  and  _459
REMARK  194  A    between atoms: _462  and  _464
REMARK  195  A    between atoms: _464  and  _465
REMARK  196  A    between atoms: _464  and  _467
REMARK  197  A    between atoms: _467  and  _468
REMARK  198  A    between atoms: _471  and  _473
REMARK  199  A    between atoms: _473  and  _474
REMARK  200  A    between atoms: _473  and  _476
REMARK  201  A    between atoms: _476  and  _477
REMARK  202  A    between atoms: _487  and  _489
REMARK  203  A    between atoms: _489  and  _490
REMARK  204  A    between atoms: _489  and  _492
REMARK  205  A    between atoms: _492  and  _493
REMARK  206  A    between atoms: _493  and  _494
REMARK  207  A    between atoms: _494  and  _495
REMARK  208  A    between atoms: _495  and  _496
REMARK  209  A    between atoms: _500  and  _502
REMARK  210  A    between atoms: _502  and  _503
REMARK  211  A    between atoms: _502  and  _505
REMARK  212  A    between atoms: _505  and  _506
REMARK  213  A    between atoms: _509  and  _510
REMARK  214  A    between atoms: _516  and  _517
REMARK  215  A    between atoms: _522  and  _524
REMARK  216  A    between atoms: _524  and  _525
REMARK  217  A    between atoms: _524  and  _527
REMARK  218  A    between atoms: _527  and  _528
REMARK  219  A    between atoms: _528  and  _529
REMARK  220  A    between atoms: _529  and  _530
REMARK  221  A    between atoms: _539  and  _541
REMARK  222  A    between atoms: _541  and  _542
REMARK  223  A    between atoms: _541  and  _544
REMARK  224  A    between atoms: _544  and  _545
REMARK  225  A    between atoms: _548  and  _550
REMARK  226  A    between atoms: _550  and  _551
REMARK  227  A    between atoms: _550  and  _553
REMARK  228  A    between atoms: _553  and  _554
REMARK  229  A    between atoms: _556  and  _558
REMARK  230  A    between atoms: _558  and  _559
REMARK  231  A    between atoms: _558  and  _561
REMARK  232  A    between atoms: _561  and  _562
REMARK  233  A    between atoms: _562  and  _563
REMARK  234  A    between atoms: _563  and  _564
REMARK  235  A    between atoms: _564  and  _565
REMARK  236  A    between atoms: _569  and  _571
REMARK  237  A    between atoms: _571  and  _572
REMARK  238  A    between atoms: _571  and  _574
REMARK  239  A    between atoms: _574  and  _575
REMARK  240  A    between atoms: _578  and  _580
REMARK  241  A    between atoms: _580  and  _581
REMARK  242  A    between atoms: _583  and  _585
REMARK  243  A    between atoms: _585  and  _586
REMARK  244  A    between atoms: _585  and  _588
REMARK  245  A    between atoms: _588  and  _589
REMARK  246  A    between atoms: _591  and  _593
REMARK  247  A    between atoms: _593  and  _594
REMARK  248  A    between atoms: _596  and  _598
REMARK  249  A    between atoms: _598  and  _599
REMARK  250  A    between atoms: _598  and  _601
REMARK  251  A    between atoms: _601  and  _602
REMARK  252  A    between atoms: _607  and  _609
REMARK  253  A    between atoms: _609  and  _610
REMARK  254  A    between atoms: _609  and  _612
REMARK  255  A    between atoms: _612  and  _613
REMARK  256  A    between atoms: _616  and  _618
REMARK  257  A    between atoms: _618  and  _619
REMARK  258  A    between atoms: _618  and  _621
REMARK  259  A    between atoms: _621  and  _622
REMARK  260  A    between atoms: _628  and  _630
REMARK  261  A    between atoms: _630  and  _631
REMARK  262  A    between atoms: _630  and  _633
REMARK  263  A    between atoms: _633  and  _634
REMARK  264  A    between atoms: _634  and  _635
REMARK  265  A    between atoms: _638  and  _640
REMARK  266  A    between atoms: _640  and  _641
REMARK  267  A    between atoms: _640  and  _643
REMARK  268  A    between atoms: _643  and  _644
REMARK  269  A    between atoms: _644  and  _645
REMARK  270  A    between atoms: _645  and  _646
REMARK  271  A    between atoms: _655  and  _657
REMARK  272  A    between atoms: _657  and  _658
REMARK  273  A    between atoms: _657  and  _660
REMARK  274  A    between atoms: _660  and  _661
REMARK  275  A    between atoms: _661  and  _662
REMARK  276  A    between atoms: _662  and  _663
REMARK  277  A    between atoms: _672  and  _674
REMARK  278  A    between atoms: _674  and  _675
REMARK  279  A    between atoms: _674  and  _677
REMARK  280  A    between atoms: _677  and  _678
REMARK  281  A    between atoms: _683  and  _684
REMARK  282  A    between atoms: _686  and  _688
REMARK  283  A    between atoms: _688  and  _689
REMARK  284  A    between atoms: _688  and  _691
REMARK  285  A    between atoms: _691  and  _692
REMARK  286  A    between atoms: _695  and  _697
REMARK  287  A    between atoms: _697  and  _698
REMARK  288  A    between atoms: _697  and  _700
REMARK  289  A    between atoms: _700  and  _701
REMARK  290  A    between atoms: _701  and  _702
REMARK  291  A    between atoms: _702  and  _703
REMARK  292  A    between atoms: _703  and  _704
REMARK  293  A    between atoms: _708  and  _710
REMARK  294  A    between atoms: _710  and  _711
REMARK  295  A    between atoms: _710  and  _713
REMARK  296  A    between atoms: _713  and  _714
REMARK  297  A    between atoms: _719  and  _721
REMARK  298  A    between atoms: _721  and  _722
REMARK  299  A    between atoms: _721  and  _724
REMARK  300  A    between atoms: _724  and  _725
REMARK  301  A    between atoms: _735  and  _737
REMARK  302  A    between atoms: _737  and  _738
REMARK  303  A    between atoms: _737  and  _740
REMARK  304  A    between atoms: _740  and  _741
REMARK  305  A    between atoms: _741  and  _742
REMARK  306  A    between atoms: _745  and  _747
REMARK  307  A    between atoms: _747  and  _748
REMARK  308  A    between atoms: _747  and  _750
REMARK  309  A    between atoms: _750  and  _751
REMARK  310  A    between atoms: _754  and  _756
REMARK  311  A    between atoms: _756  and  _757
REMARK  312  A    between atoms: _756  and  _759
REMARK  313  A    between atoms: _759  and  _760
REMARK  314  A    between atoms: _765  and  _767
REMARK  315  A    between atoms: _767  and  _768
REMARK  316  A    between atoms: _767  and  _770
REMARK  317  A    between atoms: _770  and  _771
REMARK  318  A    between atoms: _777  and  _779
REMARK  319  A    between atoms: _779  and  _780
REMARK  320  A    between atoms: _779  and  _782
REMARK  321  A    between atoms: _782  and  _783
REMARK  322  A    between atoms: _785  and  _787
REMARK  323  A    between atoms: _787  and  _788
REMARK  324  A    between atoms: _790  and  _792
REMARK  325  A    between atoms: _792  and  _793
REMARK  326  A    between atoms: _792  and  _795
REMARK  327  A    between atoms: _795  and  _796
REMARK  328  A    between atoms: _801  and  _802
REMARK  329  A    between atoms: _804  and  _806
REMARK  330  A    between atoms: _806  and  _807
REMARK  331  A    between atoms: _806  and  _809
REMARK  332  A    between atoms: _809  and  _810
REMARK  333  A    between atoms: _815  and  _816
REMARK  334  A    between atoms: _818  and  _820
REMARK  335  A    between atoms: _820  and  _821
REMARK  336  A    between atoms: _820  and  _823
REMARK  337  A    between atoms: _823  and  _824
REMARK  338  A    between atoms: _828  and  ZN_938
REMARK  339  A    between atoms: _829  and  _831
REMARK  340  A    between atoms: _831  and  _832
REMARK  341  A    between atoms: _831  and  _834
REMARK  342  A    between atoms: _834  and  _835
REMARK  343  A    between atoms: _835  and  _836
REMARK  344  A    between atoms: _839  and  _841
REMARK  345  A    between atoms: _841  and  _842
REMARK  346  A    between atoms: _841  and  _844
REMARK  347  A    between atoms: _844  and  _845
REMARK  348  A    between atoms: _845  and  _846
REMARK  349  A    between atoms: _846  and  _847
REMARK  350  A    between atoms: _856  and  _858
REMARK  351  A    between atoms: _858  and  _859
REMARK  352  A    between atoms: _858  and  _861
REMARK  353  A    between atoms: _861  and  _862
REMARK  354  A    between atoms: _867  and  _868
REMARK  355  A    between atoms: _870  and  _872
REMARK  356  A    between atoms: _872  and  _873
REMARK  357  A    between atoms: _872  and  _875
REMARK  358  A    between atoms: _875  and  _876
REMARK  359  A    between atoms: _878  and  _880
REMARK  360  A    between atoms: _880  and  _881
REMARK  361  A    between atoms: _880  and  _883
REMARK  362  A    between atoms: _883  and  _884
REMARK  363  A    between atoms: _889  and  _891
REMARK  364  A    between atoms: _891  and  _892
REMARK  365  A    between atoms: _891  and  _894
REMARK  366  A    between atoms: _894  and  _895
REMARK  367  A    between atoms: _900  and  _902
REMARK  368  A    between atoms: _902  and  _903
REMARK  369  A    between atoms: _902  and  _905
REMARK  370  A    between atoms: _905  and  _906
REMARK  371  A    between atoms: _906  and  _907
REMARK  372  A    between atoms: _907  and  _908
REMARK  373  A    between atoms: _908  and  _909
REMARK  374  A    between atoms: _913  and  _915
REMARK  375  A    between atoms: _915  and  _916
REMARK  376  A    between atoms: _915  and  _918
REMARK  377  A    between atoms: _918  and  _919
REMARK  378  A    between atoms: _924  and  _925
REMARK  379  A    between atoms: _927  and  _929
REMARK  380  A    between atoms: _929  and  _930
REMARK  381  A    between atoms: _933  and  _935
REMARK  382  A    between atoms: _935  and  _936
REMARK                            x       y       z     vdW  Elec       q    Type
REMARK                         _______ _______ _______ _____ _____    ______ ____
ROOT
ATOM      1  CB  ASN A   1      15.591  48.965  52.782  0.00  0.00    +0.110 C 
ENDROOT
BRANCH   1   2
ATOM      2  CG  ASN A   1      14.984  48.169  51.647  0.00  0.00    +0.221 C 
ATOM      3  OD1 ASN A   1      13.744  48.044  51.520  0.00  0.00    -0.275 OA
ATOM      4  ND2 ASN A   1      15.853  47.616  50.801  0.00  0.00    -0.329 N 
ATOM      5 HD21 ASN A   1      16.875  47.746  50.946  0.00  0.00    +0.145 HD
ATOM      6 HD22 ASN A   1      15.509  47.054  49.996  0.00  0.00    +0.145 HD
ENDBRANCH   1   2
BRANCH   1   7
ATOM      7  CA  ASN A   1      15.040  48.536  54.151  0.00  0.00    +0.142 C 
BRANCH   7   8
ATOM      8  N   ASN A   1      15.100  49.678  55.077  0.00  0.00    -0.239 NA
ATOM      9  H   ASN A   1      15.735  50.479  54.886  0.00  0.00    +0.142 HD
ENDBRANCH   7   8
BRANCH   7  10
ATOM     10  C   ASN A   1      15.831  47.360  54.699  0.00  0.00    +0.225 C 
ATOM     11  O   ASN A   1      16.705  47.527  55.550  0.00  0.00    -0.287 OA
ENDBRANCH   7  10
ENDBRANCH   1   7
TORSDOF 4
REMARK  Name = ../refined-set-2016/2xeg/2xeg_pocket.pdb
REMARK  382 active torsions:
REMARK  status: ('A' for Active; 'I' for Inactive)
REMARK    1  A    between atoms: _1  and  _3
REMARK    2  A    between atoms: _3  and  _4
REMARK    3  A    between atoms: _7  and  _9
REMARK    4  A    between atoms: _9  and  _10
REMARK    5  A    between atoms: _9  and  _12
REMARK    6  A    between atoms: _12  and  _13
REMARK    7  A    between atoms: _19  and  _21
REMARK    8  A    between atoms: _21  and  _22
REMARK    9  A    between atoms: _21  and  _24
REMARK   10  A    between atoms: _24  and  _25
REMARK   11  A    between atoms: _30  and  _31
REMARK   12  A    between atoms: _33  and  _35
REMARK   13  A    between atoms: _35  and  _36
REMARK   14  A    between atoms: _38  and  _40
REMARK   15  A    between atoms: _40  and  _41
REMARK   16  A    between atoms: _40  and  _43
REMARK   17  A    between atoms: _43  and  _44
REMARK   18  A    between atoms: _44  and  _45
REMARK   19  A    between atoms: _45  and  _46
REMARK   20  A    between atoms: _46  and  _47
REMARK   21  A    between atoms: _51  and  _53
REMARK   22  A    between atoms: _53  and  _54
REMARK   23  A    between atoms: _53  and  _56
REMARK   24  A    between atoms: _59  and  _61
REMARK   25  A    between atoms: _61  and  _62
REMARK   26  A    between atoms: _61  and  _64
REMARK   27  A    between atoms: _64  and  _65
REMARK   28  A    between atoms: _71  and  _73
REMARK   29  A    between atoms: _73  and  _74
REMARK   30  A    between atoms: _73  and  _76
REMARK   31  A    between atoms: _76  and  _77
REMARK   32  A    between atoms: _77  and  _78
REMARK   33  A    between atoms: _78  and  _79
REMARK   34  A    between atoms: _88  and  _90
REMARK   35  A    between atoms: _90  and  _91
REMARK   36  A    between atoms: _93  and  _95
REMARK   37  A    between atoms: _95  and  _96
REMARK   38  A    between atoms: _95  and  _98
REMARK   39  A    between atoms: _98  and  _99
REMARK   40  A    between atoms: _99  and  _100
REMARK   41  A    between atoms: _100  and  _101
REMARK   42  A    between atoms: _101  and  _102
REMARK   43  A    between atoms: _106  and  _108
REMARK   44  A    between atoms: _108  and  _109
REMARK   45  A    between atoms: _108  and  _111
REMARK   46  A    between atoms: _111  and  _112
REMARK   47  A    between atoms: _115  and  _117
REMARK   48  A    between atoms: _117  and  _118
REMARK   49  A    between atoms: _117  and  _120
REMARK   50  A    between atoms: _120  and  _121
REMARK   51  A    between atoms: _126  and  _127
REMARK   52  A    between atoms: _129  and  _131
REMARK   53  A    between atoms: _131  and  _132
REMARK   54  A    between atoms: _131  and  _134
REMARK   55  A    between atoms: _134  and  _135
REMARK   56  A    between atoms: _135  and  _136
REMARK   57  A    between atoms: _141  and  _143
REMARK   58  A    between atoms: _143  and  _144
REMARK   59  A    between atoms: _143  and  _146
REMARK   60  A    between atoms: _146  and  _147
REMARK   61  A    between atoms: _147  and  _148
REMARK   62  A    between atoms: _148  and  _149
REMARK   63  A    between atoms: _158  and  _160
REMARK   64  A    between atoms: _160  and  _161
REMARK   65  A    between atoms: _163  and  _165
REMARK   66  A    between atoms: _165  and  _166
REMARK   67  A    between atoms: _165  and  _168
REMARK   68  A    between atoms: _168  and  _169
REMARK   69  A    between atoms: _174  and  _176
REMARK   70  A    between atoms: _176  and  _177
REMARK   71  A    between atoms: _176  and  _179
REMARK   72  A    between atoms: _179  and  _180
REMARK   73  A    between atoms: _183  and  _185
REMARK   74  A    between atoms: _185  and  _186
REMARK   75  A    between atoms: _185  and  _188
REMARK   76  A    between atoms: _188  and  _189
REMARK   77  A    between atoms: _192  and  _194
REMARK   78  A    between atoms: _194  and  _195
REMARK   79  A    between atoms: _194  and  _197
REMARK   80  A    between atoms: _197  and  _198
REMARK   81  A    between atoms: _203  and  _205
REMARK   82  A    between atoms: _205  and  _206
REMARK   83  A    between atoms: _205  and  _208
REMARK   84  A    between atoms: _208  and  _209
REMARK   85  A    between atoms: _212  and  _214
REMARK   86  A    between atoms: _214  and  _215
REMARK   87  A    between atoms: _214  and  _217
REMARK   88  A    between atoms: _217  and  _218
REMARK   89  A    between atoms: _223  and  _225
REMARK   90  A    between atoms: _225  and  _226
REMARK   91  A    between atoms: _228  and  _230
REMARK   92  A    between atoms: _230  and  _231
REMARK   93  A    between atoms: _230  and  _233
REMARK   94  A    between atoms: _233  and  _234
REMARK   95  A    between atoms: _238  and  ZN_939
REMARK   96  A    between atoms: _239  and  _241
REMARK   97  A    between atoms: _241  and  _242
REMARK   98  A    between atoms: _241  and  _244
REMARK   99  A    between atoms: _244  and  _245
REMARK  100  A    between atoms: _248  and  _250
REMARK  101  A    between atoms: _250  and  _251
REMARK  102  A    between atoms: _250  and  _253
REMARK  103  A    between atoms: _253  and  _254
REMARK  104  A    between atoms: _264  and  _266
REMARK  105  A    between atoms: _266  and  _267
REMARK  106  A    between atoms: _266  and  _269
REMARK  107  A    between atoms: _269  and  _270
REMARK  108  A    between atoms: _273  and  _275
REMARK  109  A    between atoms: _275  and  _276
REMARK  110  A    between atoms: _275  and  _278
REMARK  111  A    between atoms: _278  and  _279
REMARK  112  A    between atoms: _279  and  _280
REMARK  113  A    between atoms: _279  and  _281
REMARK  114  A    between atoms: _280  and  ZN_939
REMARK  115  A    between atoms: _281  and  ZN_938
REMARK  116  A    between atoms: _283  and  _284
REMARK  117  A    between atoms: _289  and  _291
REMARK  118  A    between atoms: _291  and  _292
REMARK  119  A    between atoms: _295  and  _297
REMARK  120  A    between atoms: _297  and  _298
REMARK  121  A    between atoms: _297  and  _300
REMARK  122  A    between atoms: _300  and  _301
REMARK  123  A    between atoms: _301  and  _302
REMARK  124  A    between atoms: _305  and  _307
REMARK  125  A    between atoms: _307  and  _308
REMARK  126  A    between atoms: _307  and  _310
REMARK  127  A    between atoms: _310  and  _311
REMARK  128  A    between atoms: _311  and  _312
REMARK  129  A    between atoms: _312  and  _314
REMARK  130  A    between atoms: _314  and  ZN_938
REMARK  131  A    between atoms: _315  and  _317
REMARK  132  A    between atoms: _317  and  _318
REMARK  133  A    between atoms: _317  and  _320
REMARK  134  A    between atoms: _320  and  _321
REMARK  135  A    between atoms: _327  and  _329
REMARK  136  A    between atoms: _329  and  _330
REMARK  137  A    between atoms: _332  and  _334
REMARK  138  A    between atoms: _334  and  _335
REMARK  139  A    between atoms: _334  and  _337
REMARK  140  A    between atoms: _337  and  _338
REMARK  141  A    between atoms: _341  and  _343
REMARK  142  A    between atoms: _343  and  _344
REMARK  143  A    between atoms: _343  and  _346
REMARK  144  A    between atoms: _346  and  _347
REMARK  145  A    between atoms: _350  and  _352
REMARK  146  A    between atoms: _352  and  _353
REMARK  147  A    between atoms: _352  and  _355
REMARK  148  A    between atoms: _355  and  _356
REMARK  149  A    between atoms: _361  and  _363
REMARK  150  A    between atoms: _363  and  _364
REMARK  151  A    between atoms: _363  and  _366
REMARK  152  A    between atoms: _366  and  _367
REMARK  153  A    between atoms: _367  and  _369
REMARK  154  A    between atoms: _369  and  ZN_939
REMARK  155  A    between atoms: _370  and  _372
REMARK  156  A    between atoms: _372  and  _373
REMARK  157  A    between atoms: _372  and  _375
REMARK  158  A    between atoms: _375  and  _376
REMARK  159  A    between atoms: _378  and  _380
REMARK  160  A    between atoms: _380  and  _381
REMARK  161  A    between atoms: _380  and  _383
REMARK  162  A    between atoms: _383  and  _384
REMARK  163  A    between atoms: _386  and  _388
REMARK  164  A    between atoms: _388  and  _389
REMARK  165  A    between atoms: _388  and  _391
REMARK  166  A    between atoms: _391  and  _392
REMARK  167  A    between atoms: _395  and  _397
REMARK  168  A    between atoms: _397  and  _398
REMARK  169  A    between atoms: _397  and  _400
REMARK  170  A    between atoms: _400  and  _401
REMARK  171  A    between atoms: _401  and  _402
REMARK  172  A    between atoms: _405  and  _407
REMARK  173  A    between atoms: _407  and  _408
REMARK  174  A    between atoms: _407  and  _410
REMARK  175  A    between atoms: _410  and  _411
REMARK  176  A    between atoms: _416  and  _417
REMARK  177  A    between atoms: _419  and  _421
REMARK  178  A    between atoms: _421  and  _422
REMARK  179  A    between atoms: _421  and  _424
REMARK  180  A    between atoms: _424  and  _425
REMARK  181  A    between atoms: _428  and  _430
REMARK  182  A    between atoms: _430  and  _431
REMARK  183  A    between atoms: _430  and  _433
REMARK  184  A    between atoms: _433  and  _434
REMARK  185  A    between atoms: _437  and  _439
REMARK  186  A    between atoms: _439  and  _440
REMARK  187  A    between atoms: _439  and  _442
REMARK  188  A    between atoms: _442  and  _443
REMARK  189  A    between atoms: _443  and  _444
REMARK  190  A    between atoms: _444  and  _445
REMARK  191  A    between atoms: _454  and  _456
REMARK  192  A    between atoms: _456  and  _457
REMARK  193  A    between atoms: _456  and  _459
REMARK  194  A    between atoms: _462  and  _464
REMARK  195  A    between atoms: _464  and  _465
REMARK  196  A    between atoms: _464  and  _467
REMARK  197  A    between atoms: _467  and  _468
REMARK  198  A    between atoms: _471  and  _473
REMARK  199  A    between atoms: _473  and  _474
REMARK  200  A    between atoms: _473  and  _476
REMARK  201  A    between atoms: _476  and  _477
REMARK  202  A    between atoms: _487  and  _489
REMARK  203  A    between atoms: _489  and  _490
REMARK  204  A    between atoms: _489  and  _492
REMARK  205  A    between atoms: _492  and  _493
REMARK  206  A    between atoms: _493  and  _494
REMARK  207  A    between atoms: _494  and  _495
REMARK  208  A    between atoms: _495  and  _496
REMARK  209  A    between atoms: _500  and  _502
REMARK  210  A    between atoms: _502  and  _503
REMARK  211  A    between atoms: _502  and  _505
REMARK  212  A    between atoms: _505  and  _506
REMARK  213  A    between atoms: _509  and  _510
REMARK  214  A    between atoms: _516  and  _517
REMARK  215  A    between atoms: _522  and  _524
REMARK  216  A    between atoms: _524  and  _525
REMARK  217  A    between atoms: _524  and  _527
REMARK  218  A    between atoms: _527  and  _528
REMARK  219  A    between atoms: _528  and  _529
REMARK  220  A    between atoms: _529  and  _530
REMARK  221  A    between atoms: _539  and  _541
REMARK  222  A    between atoms: _541  and  _542
REMARK  223  A    between atoms: _541  and  _544
REMARK  224  A    between atoms: _544  and  _545
REMARK  225  A    between atoms: _548  and  _550
REMARK  226  A    between atoms: _550  and  _551
REMARK  227  A    between atoms: _550  and  _553
REMARK  228  A    between atoms: _553  and  _554
REMARK  229  A    between atoms: _556  and  _558
REMARK  230  A    between atoms: _558  and  _559
REMARK  231  A    between atoms: _558  and  _561
REMARK  232  A    between atoms: _561  and  _562
REMARK  233  A    between atoms: _562  and  _563
REMARK  234  A    between atoms: _563  and  _564
REMARK  235  A    between atoms: _564  and  _565
REMARK  236  A    between atoms: _569  and  _571
REMARK  237  A    between atoms: _571  and  _572
REMARK  238  A    between atoms: _571  and  _574
REMARK  239  A    between atoms: _574  and  _575
REMARK  240  A    between atoms: _578  and  _580
REMARK  241  A    between atoms: _580  and  _581
REMARK  242  A    between atoms: _583  and  _585
REMARK  243  A    between atoms: _585  and  _586
REMARK  244  A    between atoms: _585  and  _588
REMARK  245  A    between atoms: _588  and  _589
REMARK  246  A    between atoms: _591  and  _593
REMARK  247  A    between atoms: _593  and  _594
REMARK  248  A    between atoms: _596  and  _598
REMARK  249  A    between atoms: _598  and  _599
REMARK  250  A    between atoms: _598  and  _601
REMARK  251  A    between atoms: _601  and  _602
REMARK  252  A    between atoms: _607  and  _609
REMARK  253  A    between atoms: _609  and  _610
REMARK  254  A    between atoms: _609  and  _612
REMARK  255  A    between atoms: _612  and  _613
REMARK  256  A    between atoms: _616  and  _618
REMARK  257  A    between atoms: _618  and  _619
REMARK  258  A    between atoms: _618  and  _621
REMARK  259  A    between atoms: _621  and  _622
REMARK  260  A    between atoms: _628  and  _630
REMARK  261  A    between atoms: _630  and  _631
REMARK  262  A    between atoms: _630  and  _633
REMARK  263  A    between atoms: _633  and  _634
REMARK  264  A    between atoms: _634  and  _635
REMARK  265  A    between atoms: _638  and  _640
REMARK  266  A    between atoms: _640  and  _641
REMARK  267  A    between atoms: _640  and  _643
REMARK  268  A    between atoms: _643  and  _644
REMARK  269  A    between atoms: _644  and  _645
REMARK  270  A    between atoms: _645  and  _646
REMARK  271  A    between atoms: _655  and  _657
REMARK  272  A    between atoms: _657  and  _658
REMARK  273  A    between atoms: _657  and  _660
REMARK  274  A    between atoms: _660  and  _661
REMARK  275  A    between atoms: _661  and  _662
REMARK  276  A    between atoms: _662  and  _663
REMARK  277  A    between atoms: _672  and  _674
REMARK  278  A    between atoms: _674  and  _675
REMARK  279  A    between atoms: _674  and  _677
REMARK  280  A    between atoms: _677  and  _678
REMARK  281  A    between atoms: _683  and  _684
REMARK  282  A    between atoms: _686  and  _688
REMARK  283  A    between atoms: _688  and  _689
REMARK  284  A    between atoms: _688  and  _691
REMARK  285  A    between atoms: _691  and  _692
REMARK  286  A    between atoms: _695  and  _697
REMARK  287  A    between atoms: _697  and  _698
REMARK  288  A    between atoms: _697  and  _700
REMARK  289  A    between atoms: _700  and  _701
REMARK  290  A    between atoms: _701  and  _702
REMARK  291  A    between atoms: _702  and  _703
REMARK  292  A    between atoms: _703  and  _704
REMARK  293  A    between atoms: _708  and  _710
REMARK  294  A    between atoms: _710  and  _711
REMARK  295  A    between atoms: _710  and  _713
REMARK  296  A    between atoms: _713  and  _714
REMARK  297  A    between atoms: _719  and  _721
REMARK  298  A    between atoms: _721  and  _722
REMARK  299  A    between atoms: _721  and  _724
REMARK  300  A    between atoms: _724  and  _725
REMARK  301  A    between atoms: _735  and  _737
REMARK  302  A    between atoms: _737  and  _738
REMARK  303  A    between atoms: _737  and  _740
REMARK  304  A    between atoms: _740  and  _741
REMARK  305  A    between atoms: _741  and  _742
REMARK  306  A    between atoms: _745  and  _747
REMARK  307  A    between atoms: _747  and  _748
REMARK  308  A    between atoms: _747  and  _750
REMARK  309  A    between atoms: _750  and  _751
REMARK  310  A    between atoms: _754  and  _756
REMARK  311  A    between atoms: _756  and  _757
REMARK  312  A    between atoms: _756  and  _759
REMARK  313  A    between atoms: _759  and  _760
REMARK  314  A    between atoms: _765  and  _767
REMARK  315  A    between atoms: _767  and  _768
REMARK  316  A    between atoms: _767  and  _770
REMARK  317  A    between atoms: _770  and  _771
REMARK  318  A    between atoms: _777  and  _779
REMARK  319  A    between atoms: _779  and  _780
REMARK  320  A    between atoms: _779  and  _782
REMARK  321  A    between atoms: _782  and  _783
REMARK  322  A    between atoms: _785  and  _787
REMARK  323  A    between atoms: _787  and  _788
REMARK  324  A    between atoms: _790  and  _792
REMARK  325  A    between atoms: _792  and  _793
REMARK  326  A    between atoms: _792  and  _795
REMARK  327  A    between atoms: _795  and  _796
REMARK  328  A    between atoms: _801  and  _802
REMARK  329  A    between atoms: _804  and  _806
REMARK  330  A    between atoms: _806  and  _807
REMARK  331  A    between atoms: _806  and  _809
REMARK  332  A    between atoms: _809  and  _810
REMARK  333  A    between atoms: _815  and  _816
REMARK  334  A    between atoms: _818  and  _820
REMARK  335  A    between atoms: _820  and  _821
REMARK  336  A    between atoms: _820  and  _823
REMARK  337  A    between atoms: _823  and  _824
REMARK  338  A    between atoms: _828  and  ZN_938
REMARK  339  A    between atoms: _829  and  _831
REMARK  340  A    between atoms: _831  and  _832
REMARK  341  A    between atoms: _831  and  _834
REMARK  342  A    between atoms: _834  and  _835
REMARK  343  A    between atoms: _835  and  _836
REMARK  344  A    between atoms: _839  and  _841
REMARK  345  A    between atoms: _841  and  _842
REMARK  346  A    between atoms: _841  and  _844
REMARK  347  A    between atoms: _844  and  _845
REMARK  348  A    between atoms: _845  and  _846
REMARK  349  A    between atoms: _846  and  _847
REMARK  350  A    between atoms: _856  and  _858
REMARK  351  A    between atoms: _858  and  _859
REMARK  352  A    between atoms: _858  and  _861
REMARK  353  A    between atoms: _861  and  _862
REMARK  354  A    between atoms: _867  and  _868
REMARK  355  A    between atoms: _870  and  _872
REMARK  356  A    between atoms: _872  and  _873
REMARK  357  A    between atoms: _872  and  _875
REMARK  358  A    between atoms: _875  and  _876
REMARK  359  A    between atoms: _878  and  _880
REMARK  360  A    between atoms: _880  and  _881
REMARK  361  A    between atoms: _880  and  _883
REMARK  362  A    between atoms: _883  and  _884
REMARK  363  A    between atoms: _889  and  _891
REMARK  364  A    between atoms: _891  and  _892
REMARK  365  A    between atoms: _891  and  _894
REMARK  366  A    between atoms: _894  and  _895
REMARK  367  A    between atoms: _900  and  _902
REMARK  368  A    between atoms: _902  and  _903
REMARK  369  A    between atoms: _902  and  _905
REMARK  370  A    between atoms: _905  and  _906
REMARK  371  A    between atoms: _906  and  _907
REMARK  372  A    between atoms: _907  and  _908
REMARK  373  A    between atoms: _908  and  _909
REMARK  374  A    between atoms: _913  and  _915
REMARK  375  A    between atoms: _915  and  _916
REMARK  376  A    between atoms: _915  and  _918
REMARK  377  A    between atoms: _918  and  _919
REMARK  378  A    between atoms: _924  and  _925
REMARK  379  A    between atoms: _927  and  _929
REMARK  380  A    between atoms: _929  and  _930
REMARK  381  A    between atoms: _933  and  _935
REMARK  382  A    between atoms: _935  and  _936
REMARK                            x       y       z     vdW  Elec       q    Type
REMARK                         _______ _______ _______ _____ _____    ______ ____
ROOT
ATOM      1  C   LEU A   3      29.489  49.577  55.211  0.00  0.00    +0.241 C 
ATOM      2  O   LEU A   3      30.365  50.353  54.792  0.00  0.00    -0.273 OA
ATOM      3  N   ARG A   4      28.256  49.507  54.697  0.00  0.00    -0.297 N 
ATOM      4  H   ARG A   4      27.612  48.779  55.067  0.00  0.00    +0.150 HD
ENDROOT
BRANCH   3   5
ATOM      5  CA  ARG A   4      27.760  50.397  53.643  0.00  0.00    +0.149 C 
BRANCH   5   6
ATOM      6  C   ARG A   4      26.425  50.919  54.178  0.00  0.00    +0.241 C 
ATOM      7  O   ARG A   4      25.563  50.116  54.553  0.00  0.00    -0.273 OA
ATOM      8  N   VAL A   5      26.272  52.240  54.259  0.00  0.00    -0.297 N 
ATOM      9  H   VAL A   5      27.078  52.868  54.065  0.00  0.00    +0.150 HD
BRANCH   8  10
ATOM     10  CA  VAL A   5      24.958  52.817  54.625  0.00  0.00    +0.149 C 
BRANCH  10  11
ATOM     11  C   VAL A   5      24.587  53.841  53.563  0.00  0.00    +0.241 C 
ATOM     12  O   VAL A   5      25.411  54.680  53.212  0.00  0.00    -0.273 OA
ATOM     13  N   ASP A   6      23.328  53.804  53.093  0.00  0.00    -0.298 N 
ATOM     14  H   ASP A   6      22.722  53.003  53.362  0.00  0.00    +0.150 HD
BRANCH  13  15
ATOM     15  CA  ASP A   6      22.764  54.850  52.210  0.00  0.00    +0.148 C 
BRANCH  15  16
ATOM     16  C   ASP A   6      21.504  55.296  52.947  0.00  0.00    +0.227 C 
ATOM     17  O   ASP A   6      20.660  54.465  53.319  0.00  0.00    -0.286 OA
ENDBRANCH  15  16
BRANCH  15  18
ATOM     18  CB  ASP A   6      22.292  54.329  50.822  0.00  0.00    +0.142 C 
BRANCH  18  19
ATOM     19  CG  ASP A   6      23.328  53.519  50.060  0.00  0.00    +0.367 C 
ATOM     20  OD2 ASP A   6      24.518  53.430  50.450  0.00  0.00    -0.246 OA
ATOM     21  OD1 ASP A   6      22.942  52.923  49.004  0.00  0.00    -0.246 OA
ENDBRANCH  18  19
ENDBRANCH  15  18
ENDBRANCH  13  15
ENDBRANCH  10  11
BRANCH  10  22
ATOM     22  CB  VAL A   5      25.034  53.511  56.024  0.00  0.00    +0.027 C 
ATOM     23  CG2 VAL A   5      25.441  52.512  57.102  0.00  0.00    +0.002 C 
ATOM     24  CG1 VAL A   5      23.749  54.188  56.382  0.00  0.00    +0.002 C 
ENDBRANCH  10  22
ENDBRANCH   8  10
ENDBRANCH   5   6
BRANCH   5  25
ATOM     25  CB  ARG A   4      27.568  49.632  52.297  0.00  0.00    +0.033 C 
BRANCH  25  26
ATOM     26  CG  ARG A   4      27.262  50.528  51.052  0.00  0.00    +0.045 C 
BRANCH  26  27
ATOM     27  CD  ARG A   4      27.035  49.686  49.798  0.00  0.00    +0.174 C 
BRANCH  27  28
ATOM     28  NE  ARG A   4      26.714  50.506  48.630  0.00  0.00    -0.265 N 
ATOM     29  HE  ARG A   4      26.843  51.535  48.710  0.00  0.00    +0.259 HD
ATOM     30  CZ  ARG A   4      26.269  50.025  47.473  0.00  0.00    +0.342 C 
ATOM     31  NH2 ARG A   4      26.095  48.720  47.326  0.00  0.00    -0.292 N 
ATOM     32 HH21 ARG A   4      26.306  48.075  48.114  0.00  0.00    +0.255 HD
ATOM     33 HH22 ARG A   4      25.747  48.340  46.422  0.00  0.00    +0.255 HD
ATOM     34  NH1 ARG A   4      25.996  50.855  46.465  0.00  0.00    -0.292 N 
ATOM     35 HH11 ARG A   4      26.131  51.879  46.584  0.00  0.00    +0.255 HD
ATOM     36 HH12 ARG A   4      25.648  50.478  45.560  0.00  0.00    +0.255 HD
ENDBRANCH  27  28
ENDBRANCH  26  27
ENDBRANCH  25  26
ENDBRANCH   5  25
ENDBRANCH   3   5
BRANCH   1  37
ATOM     37  CA  LEU A   3      29.748  48.670  56.416  0.00  0.00    +0.149 C 
BRANCH  37  39
ATOM     38  C   THR A   2      31.662  47.351  55.688  0.00  0.00    +0.243 C 
ATOM     39  N   LEU A   3      31.186  48.293  56.489  0.00  0.00    -0.297 N 
ATOM     40  H   LEU A   3      31.816  48.768  57.167  0.00  0.00    +0.150 HD
ATOM     41  O   THR A   2      30.987  46.729  54.836  0.00  0.00    -0.273 OA
BRANCH  38  42
ATOM     42  CA  THR A   2      33.163  47.036  55.875  0.00  0.00    +0.176 C 
BRANCH  42  45
ATOM     43  C   TYR A   1      34.685  45.297  55.191  0.00  0.00    +0.239 C 
ATOM     44  O   TYR A   1      35.348  45.510  56.218  0.00  0.00    -0.274 OA
ATOM     45  N   THR A   2      33.577  46.009  54.913  0.00  0.00    -0.295 N 
ATOM     46  H   THR A   2      33.032  45.837  54.044  0.00  0.00    +0.150 HD
BRANCH  43  47
ATOM     47  CA  TYR A   1      35.123  44.248  54.189  0.00  0.00    +0.149 C 
BRANCH  47  48
ATOM     48  N   TYR A   1      34.051  43.287  53.900  0.00  0.00    -0.238 NA
ATOM     49  H   TYR A   1      33.295  43.537  53.231  0.00  0.00    +0.142 HD
ENDBRANCH  47  48
BRANCH  47  50
ATOM     50  CB  TYR A   1      35.581  44.920  52.901  0.00  0.00    +0.053 C 
BRANCH  50  51
ATOM     51  CG  TYR A   1      36.701  45.917  53.098  0.00  0.00    -0.020 A 
ATOM     52  CD2 TYR A   1      37.964  45.499  53.528  0.00  0.00    -0.001 A 
ATOM     53  CE2 TYR A   1      38.997  46.414  53.688  0.00  0.00    +0.036 A 
ATOM     54  CZ  TYR A   1      38.769  47.733  53.405  0.00  0.00    +0.134 A 
ATOM     55  CE1 TYR A   1      37.524  48.186  52.965  0.00  0.00    +0.036 A 
ATOM     56  CD1 TYR A   1      36.496  47.262  52.813  0.00  0.00    -0.001 A 
BRANCH  54  57
ATOM     57  OH  TYR A   1      39.792  48.623  53.566  0.00  0.00    -0.506 OA
ATOM     58  HH  TYR A   1      39.985  49.063  52.700  0.00  0.00    +0.292 HD
ENDBRANCH  54  57
ENDBRANCH  50  51
ENDBRANCH  47  50
ENDBRANCH  43  47
ENDBRANCH  42  45
BRANCH  42  59
ATOM     59  CB  THR A   2      33.981  48.341  55.750  0.00  0.00    +0.137 C 
ATOM     60  CG2 THR A   2      33.682  49.118  54.440  0.00  0.00    +0.034 C 
BRANCH  59  61
ATOM     61  OG1 THR A   2      33.752  49.191  56.867  0.00  0.00    -0.382 OA
ATOM     62  HG1 THR A   2      34.022  48.723  57.697  0.00  0.00    +0.210 HD
ENDBRANCH  59  61
ENDBRANCH  42  59
ENDBRANCH  38  42
ENDBRANCH  37  39
BRANCH  37  63
ATOM     63  CB  LEU A   3      29.342  49.389  57.701  0.00  0.00    +0.029 C 
BRANCH  63  64
ATOM     64  CG  LEU A   3      27.824  49.567  57.912  0.00  0.00    +0.002 C 
ATOM     65  CD2 LEU A   3      27.688  50.489  59.123  0.00  0.00    +0.000 C 
ATOM     66  CD1 LEU A   3      27.164  48.209  58.200  0.00  0.00    +0.000 C 
ENDBRANCH  63  64
ENDBRANCH  37  63
ENDBRANCH   1  37
TORSDOF 26
REMARK  Name = ../refined-set-2016/2xeg/2xeg_pocket.pdb
REMARK  382 active torsions:
REMARK  status: ('A' for Active; 'I' for Inactive)
REMARK    1  A    between atoms: _1  and  _3
REMARK    2  A    between atoms: _3  and  _4
REMARK    3  A    between atoms: _7  and  _9
REMARK    4  A    between atoms: _9  and  _10
REMARK    5  A    between atoms: _9  and  _12
REMARK    6  A    between atoms: _12  and  _13
REMARK    7  A    between atoms: _19  and  _21
REMARK    8  A    between atoms: _21  and  _22
REMARK    9  A    between atoms: _21  and  _24
REMARK   10  A    between atoms: _24  and  _25
REMARK   11  A    between atoms: _30  and  _31
REMARK   12  A    between atoms: _33  and  _35
REMARK   13  A    between atoms: _35  and  _36
REMARK   14  A    between atoms: _38  and  _40
REMARK   15  A    between atoms: _40  and  _41
REMARK   16  A    between atoms: _40  and  _43
REMARK   17  A    between atoms: _43  and  _44
REMARK   18  A    between atoms: _44  and  _45
REMARK   19  A    between atoms: _45  and  _46
REMARK   20  A    between atoms: _46  and  _47
REMARK   21  A    between atoms: _51  and  _53
REMARK   22  A    between atoms: _53  and  _54
REMARK   23  A    between atoms: _53  and  _56
REMARK   24  A    between atoms: _59  and  _61
REMARK   25  A    between atoms: _61  and  _62
REMARK   26  A    between atoms: _61  and  _64
REMARK   27  A    between atoms: _64  and  _65
REMARK   28  A    between atoms: _71  and  _73
REMARK   29  A    between atoms: _73  and  _74
REMARK   30  A    between atoms: _73  and  _76
REMARK   31  A    between atoms: _76  and  _77
REMARK   32  A    between atoms: _77  and  _78
REMARK   33  A    between atoms: _78  and  _79
REMARK   34  A    between atoms: _88  and  _90
REMARK   35  A    between atoms: _90  and  _91
REMARK   36  A    between atoms: _93  and  _95
REMARK   37  A    between atoms: _95  and  _96
REMARK   38  A    between atoms: _95  and  _98
REMARK   39  A    between atoms: _98  and  _99
REMARK   40  A    between atoms: _99  and  _100
REMARK   41  A    between atoms: _100  and  _101
REMARK   42  A    between atoms: _101  and  _102
REMARK   43  A    between atoms: _106  and  _108
REMARK   44  A    between atoms: _108  and  _109
REMARK   45  A    between atoms: _108  and  _111
REMARK   46  A    between atoms: _111  and  _112
REMARK   47  A    between atoms: _115  and  _117
REMARK   48  A    between atoms: _117  and  _118
REMARK   49  A    between atoms: _117  and  _120
REMARK   50  A    between atoms: _120  and  _121
REMARK   51  A    between atoms: _126  and  _127
REMARK   52  A    between atoms: _129  and  _131
REMARK   53  A    between atoms: _131  and  _132
REMARK   54  A    between atoms: _131  and  _134
REMARK   55  A    between atoms: _134  and  _135
REMARK   56  A    between atoms: _135  and  _136
REMARK   57  A    between atoms: _141  and  _143
REMARK   58  A    between atoms: _143  and  _144
REMARK   59  A    between atoms: _143  and  _146
REMARK   60  A    between atoms: _146  and  _147
REMARK   61  A    between atoms: _147  and  _148
REMARK   62  A    between atoms: _148  and  _149
REMARK   63  A    between atoms: _158  and  _160
REMARK   64  A    between atoms: _160  and  _161
REMARK   65  A    between atoms: _163  and  _165
REMARK   66  A    between atoms: _165  and  _166
REMARK   67  A    between atoms: _165  and  _168
REMARK   68  A    between atoms: _168  and  _169
REMARK   69  A    between atoms: _174  and  _176
REMARK   70  A    between atoms: _176  and  _177
REMARK   71  A    between atoms: _176  and  _179
REMARK   72  A    between atoms: _179  and  _180
REMARK   73  A    between atoms: _183  and  _185
REMARK   74  A    between atoms: _185  and  _186
REMARK   75  A    between atoms: _185  and  _188
REMARK   76  A    between atoms: _188  and  _189
REMARK   77  A    between atoms: _192  and  _194
REMARK   78  A    between atoms: _194  and  _195
REMARK   79  A    between atoms: _194  and  _197
REMARK   80  A    between atoms: _197  and  _198
REMARK   81  A    between atoms: _203  and  _205
REMARK   82  A    between atoms: _205  and  _206
REMARK   83  A    between atoms: _205  and  _208
REMARK   84  A    between atoms: _208  and  _209
REMARK   85  A    between atoms: _212  and  _214
REMARK   86  A    between atoms: _214  and  _215
REMARK   87  A    between atoms: _214  and  _217
REMARK   88  A    between atoms: _217  and  _218
REMARK   89  A    between atoms: _223  and  _225
REMARK   90  A    between atoms: _225  and  _226
REMARK   91  A    between atoms: _228  and  _230
REMARK   92  A    between atoms: _230  and  _231
REMARK   93  A    between atoms: _230  and  _233
REMARK   94  A    between atoms: _233  and  _234
REMARK   95  A    between atoms: _238  and  ZN_939
REMARK   96  A    between atoms: _239  and  _241
REMARK   97  A    between atoms: _241  and  _242
REMARK   98  A    between atoms: _241  and  _244
REMARK   99  A    between atoms: _244  and  _245
REMARK  100  A    between atoms: _248  and  _250
REMARK  101  A    between atoms: _250  and  _251
REMARK  102  A    between atoms: _250  and  _253
REMARK  103  A    between atoms: _253  and  _254
REMARK  104  A    between atoms: _264  and  _266
REMARK  105  A    between atoms: _266  and  _267
REMARK  106  A    between atoms: _266  and  _269
REMARK  107  A    between atoms: _269  and  _270
REMARK  108  A    between atoms: _273  and  _275
REMARK  109  A    between atoms: _275  and  _276
REMARK  110  A    between atoms: _275  and  _278
REMARK  111  A    between atoms: _278  and  _279
REMARK  112  A    between atoms: _279  and  _280
REMARK  113  A    between atoms: _279  and  _281
REMARK  114  A    between atoms: _280  and  ZN_939
REMARK  115  A    between atoms: _281  and  ZN_938
REMARK  116  A    between atoms: _283  and  _284
REMARK  117  A    between atoms: _289  and  _291
REMARK  118  A    between atoms: _291  and  _292
REMARK  119  A    between atoms: _295  and  _297
REMARK  120  A    between atoms: _297  and  _298
REMARK  121  A    between atoms: _297  and  _300
REMARK  122  A    between atoms: _300  and  _301
REMARK  123  A    between atoms: _301  and  _302
REMARK  124  A    between atoms: _305  and  _307
REMARK  125  A    between atoms: _307  and  _308
REMARK  126  A    between atoms: _307  and  _310
REMARK  127  A    between atoms: _310  and  _311
REMARK  128  A    between atoms: _311  and  _312
REMARK  129  A    between atoms: _312  and  _314
REMARK  130  A    between atoms: _314  and  ZN_938
REMARK  131  A    between atoms: _315  and  _317
REMARK  132  A    between atoms: _317  and  _318
REMARK  133  A    between atoms: _317  and  _320
REMARK  134  A    between atoms: _320  and  _321
REMARK  135  A    between atoms: _327  and  _329
REMARK  136  A    between atoms: _329  and  _330
REMARK  137  A    between atoms: _332  and  _334
REMARK  138  A    between atoms: _334  and  _335
REMARK  139  A    between atoms: _334  and  _337
REMARK  140  A    between atoms: _337  and  _338
REMARK  141  A    between atoms: _341  and  _343
REMARK  142  A    between atoms: _343  and  _344
REMARK  143  A    between atoms: _343  and  _346
REMARK  144  A    between atoms: _346  and  _347
REMARK  145  A    between atoms: _350  and  _352
REMARK  146  A    between atoms: _352  and  _353
REMARK  147  A    between atoms: _352  and  _355
REMARK  148  A    between atoms: _355  and  _356
REMARK  149  A    between atoms: _361  and  _363
REMARK  150  A    between atoms: _363  and  _364
REMARK  151  A    between atoms: _363  and  _366
REMARK  152  A    between atoms: _366  and  _367
REMARK  153  A    between atoms: _367  and  _369
REMARK  154  A    between atoms: _369  and  ZN_939
REMARK  155  A    between atoms: _370  and  _372
REMARK  156  A    between atoms: _372  and  _373
REMARK  157  A    between atoms: _372  and  _375
REMARK  158  A    between atoms: _375  and  _376
REMARK  159  A    between atoms: _378  and  _380
REMARK  160  A    between atoms: _380  and  _381
REMARK  161  A    between atoms: _380  and  _383
REMARK  162  A    between atoms: _383  and  _384
REMARK  163  A    between atoms: _386  and  _388
REMARK  164  A    between atoms: _388  and  _389
REMARK  165  A    between atoms: _388  and  _391
REMARK  166  A    between atoms: _391  and  _392
REMARK  167  A    between atoms: _395  and  _397
REMARK  168  A    between atoms: _397  and  _398
REMARK  169  A    between atoms: _397  and  _400
REMARK  170  A    between atoms: _400  and  _401
REMARK  171  A    between atoms: _401  and  _402
REMARK  172  A    between atoms: _405  and  _407
REMARK  173  A    between atoms: _407  and  _408
REMARK  174  A    between atoms: _407  and  _410
REMARK  175  A    between atoms: _410  and  _411
REMARK  176  A    between atoms: _416  and  _417
REMARK  177  A    between atoms: _419  and  _421
REMARK  178  A    between atoms: _421  and  _422
REMARK  179  A    between atoms: _421  and  _424
REMARK  180  A    between atoms: _424  and  _425
REMARK  181  A    between atoms: _428  and  _430
REMARK  182  A    between atoms: _430  and  _431
REMARK  183  A    between atoms: _430  and  _433
REMARK  184  A    between atoms: _433  and  _434
REMARK  185  A    between atoms: _437  and  _439
REMARK  186  A    between atoms: _439  and  _440
REMARK  187  A    between atoms: _439  and  _442
REMARK  188  A    between atoms: _442  and  _443
REMARK  189  A    between atoms: _443  and  _444
REMARK  190  A    between atoms: _444  and  _445
REMARK  191  A    between atoms: _454  and  _456
REMARK  192  A    between atoms: _456  and  _457
REMARK  193  A    between atoms: _456  and  _459
REMARK  194  A    between atoms: _462  and  _464
REMARK  195  A    between atoms: _464  and  _465
REMARK  196  A    between atoms: _464  and  _467
REMARK  197  A    between atoms: _467  and  _468
REMARK  198  A    between atoms: _471  and  _473
REMARK  199  A    between atoms: _473  and  _474
REMARK  200  A    between atoms: _473  and  _476
REMARK  201  A    between atoms: _476  and  _477
REMARK  202  A    between atoms: _487  and  _489
REMARK  203  A    between atoms: _489  and  _490
REMARK  204  A    between atoms: _489  and  _492
REMARK  205  A    between atoms: _492  and  _493
REMARK  206  A    between atoms: _493  and  _494
REMARK  207  A    between atoms: _494  and  _495
REMARK  208  A    between atoms: _495  and  _496
REMARK  209  A    between atoms: _500  and  _502
REMARK  210  A    between atoms: _502  and  _503
REMARK  211  A    between atoms: _502  and  _505
REMARK  212  A    between atoms: _505  and  _506
REMARK  213  A    between atoms: _509  and  _510
REMARK  214  A    between atoms: _516  and  _517
REMARK  215  A    between atoms: _522  and  _524
REMARK  216  A    between atoms: _524  and  _525
REMARK  217  A    between atoms: _524  and  _527
REMARK  218  A    between atoms: _527  and  _528
REMARK  219  A    between atoms: _528  and  _529
REMARK  220  A    between atoms: _529  and  _530
REMARK  221  A    between atoms: _539  and  _541
REMARK  222  A    between atoms: _541  and  _542
REMARK  223  A    between atoms: _541  and  _544
REMARK  224  A    between atoms: _544  and  _545
REMARK  225  A    between atoms: _548  and  _550
REMARK  226  A    between atoms: _550  and  _551
REMARK  227  A    between atoms: _550  and  _553
REMARK  228  A    between atoms: _553  and  _554
REMARK  229  A    between atoms: _556  and  _558
REMARK  230  A    between atoms: _558  and  _559
REMARK  231  A    between atoms: _558  and  _561
REMARK  232  A    between atoms: _561  and  _562
REMARK  233  A    between atoms: _562  and  _563
REMARK  234  A    between atoms: _563  and  _564
REMARK  235  A    between atoms: _564  and  _565
REMARK  236  A    between atoms: _569  and  _571
REMARK  237  A    between atoms: _571  and  _572
REMARK  238  A    between atoms: _571  and  _574
REMARK  239  A    between atoms: _574  and  _575
REMARK  240  A    between atoms: _578  and  _580
REMARK  241  A    between atoms: _580  and  _581
REMARK  242  A    between atoms: _583  and  _585
REMARK  243  A    between atoms: _585  and  _586
REMARK  244  A    between atoms: _585  and  _588
REMARK  245  A    between atoms: _588  and  _589
REMARK  246  A    between atoms: _591  and  _593
REMARK  247  A    between atoms: _593  and  _594
REMARK  248  A    between atoms: _596  and  _598
REMARK  249  A    between atoms: _598  and  _599
REMARK  250  A    between atoms: _598  and  _601
REMARK  251  A    between atoms: _601  and  _602
REMARK  252  A    between atoms: _607  and  _609
REMARK  253  A    between atoms: _609  and  _610
REMARK  254  A    between atoms: _609  and  _612
REMARK  255  A    between atoms: _612  and  _613
REMARK  256  A    between atoms: _616  and  _618
REMARK  257  A    between atoms: _618  and  _619
REMARK  258  A    between atoms: _618  and  _621
REMARK  259  A    between atoms: _621  and  _622
REMARK  260  A    between atoms: _628  and  _630
REMARK  261  A    between atoms: _630  and  _631
REMARK  262  A    between atoms: _630  and  _633
REMARK  263  A    between atoms: _633  and  _634
REMARK  264  A    between atoms: _634  and  _635
REMARK  265  A    between atoms: _638  and  _640
REMARK  266  A    between atoms: _640  and  _641
REMARK  267  A    between atoms: _640  and  _643
REMARK  268  A    between atoms: _643  and  _644
REMARK  269  A    between atoms: _644  and  _645
REMARK  270  A    between atoms: _645  and  _646
REMARK  271  A    between atoms: _655  and  _657
REMARK  272  A    between atoms: _657  and  _658
REMARK  273  A    between atoms: _657  and  _660
REMARK  274  A    between atoms: _660  and  _661
REMARK  275  A    between atoms: _661  and  _662
REMARK  276  A    between atoms: _662  and  _663
REMARK  277  A    between atoms: _672  and  _674
REMARK  278  A    between atoms: _674  and  _675
REMARK  279  A    between atoms: _674  and  _677
REMARK  280  A    between atoms: _677  and  _678
REMARK  281  A    between atoms: _683  and  _684
REMARK  282  A    between atoms: _686  and  _688
REMARK  283  A    between atoms: _688  and  _689
REMARK  284  A    between atoms: _688  and  _691
REMARK  285  A    between atoms: _691  and  _692
REMARK  286  A    between atoms: _695  and  _697
REMARK  287  A    between atoms: _697  and  _698
REMARK  288  A    between atoms: _697  and  _700
REMARK  289  A    between atoms: _700  and  _701
REMARK  290  A    between atoms: _701  and  _702
REMARK  291  A    between atoms: _702  and  _703
REMARK  292  A    between atoms: _703  and  _704
REMARK  293  A    between atoms: _708  and  _710
REMARK  294  A    between atoms: _710  and  _711
REMARK  295  A    between atoms: _710  and  _713
REMARK  296  A    between atoms: _713  and  _714
REMARK  297  A    between atoms: _719  and  _721
REMARK  298  A    between atoms: _721  and  _722
REMARK  299  A    between atoms: _721  and  _724
REMARK  300  A    between atoms: _724  and  _725
REMARK  301  A    between atoms: _735  and  _737
REMARK  302  A    between atoms: _737  and  _738
REMARK  303  A    between atoms: _737  and  _740
REMARK  304  A    between atoms: _740  and  _741
REMARK  305  A    between atoms: _741  and  _742
REMARK  306  A    between atoms: _745  and  _747
REMARK  307  A    between atoms: _747  and  _748
REMARK  308  A    between atoms: _747  and  _750
REMARK  309  A    between atoms: _750  and  _751
REMARK  310  A    between atoms: _754  and  _756
REMARK  311  A    between atoms: _756  and  _757
REMARK  312  A    between atoms: _756  and  _759
REMARK  313  A    between atoms: _759  and  _760
REMARK  314  A    between atoms: _765  and  _767
REMARK  315  A    between atoms: _767  and  _768
REMARK  316  A    between atoms: _767  and  _770
REMARK  317  A    between atoms: _770  and  _771
REMARK  318  A    between atoms: _777  and  _779
REMARK  319  A    between atoms: _779  and  _780
REMARK  320  A    between atoms: _779  and  _782
REMARK  321  A    between atoms: _782  and  _783
REMARK  322  A    between atoms: _785  and  _787
REMARK  323  A    between atoms: _787  and  _788
REMARK  324  A    between atoms: _790  and  _792
REMARK  325  A    between atoms: _792  and  _793
REMARK  326  A    between atoms: _792  and  _795
REMARK  327  A    between atoms: _795  and  _796
REMARK  328  A    between atoms: _801  and  _802
REMARK  329  A    between atoms: _804  and  _806
REMARK  330  A    between atoms: _806  and  _807
REMARK  331  A    between atoms: _806  and  _809
REMARK  332  A    between atoms: _809  and  _810
REMARK  333  A    between atoms: _815  and  _816
REMARK  334  A    between atoms: _818  and  _820
REMARK  335  A    between atoms: _820  and  _821
REMARK  336  A    between atoms: _820  and  _823
REMARK  337  A    between atoms: _823  and  _824
REMARK  338  A    between atoms: _828  and  ZN_938
REMARK  339  A    between atoms: _829  and  _831
REMARK  340  A    between atoms: _831  and  _832
REMARK  341  A    between atoms: _831  and  _834
REMARK  342  A    between atoms: _834  and  _835
REMARK  343  A    between atoms: _835  and  _836
REMARK  344  A    between atoms: _839  and  _841
REMARK  345  A    between atoms: _841  and  _842
REMARK  346  A    between atoms: _841  and  _844
REMARK  347  A    between atoms: _844  and  _845
REMARK  348  A    between atoms: _845  and  _846
REMARK  349  A    between atoms: _846  and  _847
REMARK  350  A    between atoms: _856  and  _858
REMARK  351  A    between atoms: _858  and  _859
REMARK  352  A    between atoms: _858  and  _861
REMARK  353  A    between atoms: _861  and  _862
REMARK  354  A    between atoms: _867  and  _868
REMARK  355  A    between atoms: _870  and  _872
REMARK  356  A    between atoms: _872  and  _873
REMARK  357  A    between atoms: _872  and  _875
REMARK  358  A    between atoms: _875  and  _876
REMARK  359  A    between atoms: _878  and  _880
REMARK  360  A    between atoms: _880  and  _881
REMARK  361  A    between atoms: _880  and  _883
REMARK  362  A    between atoms: _883  and  _884
REMARK  363  A    between atoms: _889  and  _891
REMARK  364  A    between atoms: _891  and  _892
REMARK  365  A    between atoms: _891  and  _894
REMARK  366  A    between atoms: _894  and  _895
REMARK  367  A    between atoms: _900  and  _902
REMARK  368  A    between atoms: _902  and  _903
REMARK  369  A    between atoms: _902  and  _905
REMARK  370  A    between atoms: _905  and  _906
REMARK  371  A    between atoms: _906  and  _907
REMARK  372  A    between atoms: _907  and  _908
REMARK  373  A    between atoms: _908  and  _909
REMARK  374  A    between atoms: _913  and  _915
REMARK  375  A    between atoms: _915  and  _916
REMARK  376  A    between atoms: _915  and  _918
REMARK  377  A    between atoms: _918  and  _919
REMARK  378  A    between atoms: _924  and  _925
REMARK  379  A    between atoms: _927  and  _929
REMARK  380  A    between atoms: _929  and  _930
REMARK  381  A    between atoms: _933  and  _935
REMARK  382  A    between atoms: _935  and  _936
REMARK                            x       y       z     vdW  Elec       q    Type
REMARK                         _______ _______ _______ _____ _____    ______ ____
ROOT
ATOM      1  CG  TRP A   1      31.656  52.390  58.542  0.00  0.00    -0.002 A 
ATOM      2  CD2 TRP A   1      30.481  53.171  58.748  0.00  0.00    +0.013 A 
ATOM      3  CE3 TRP A   1      29.810  53.625  59.906  0.00  0.00    +0.001 A 
ATOM      4  CZ3 TRP A   1      28.643  54.407  59.754  0.00  0.00    +0.000 A 
ATOM      5  CH2 TRP A   1      28.152  54.720  58.456  0.00  0.00    +0.001 A 
ATOM      6  CZ2 TRP A   1      28.785  54.297  57.320  0.00  0.00    +0.017 A 
ATOM      7  CE2 TRP A   1      29.958  53.522  57.467  0.00  0.00    +0.056 A 
ATOM      8  NE1 TRP A   1      30.773  52.970  56.516  0.00  0.00    -0.352 N 
ATOM      9  HE1 TRP A   1      30.642  53.039  55.487  0.00  0.00    +0.166 HD
ATOM     10  CD1 TRP A   1      31.821  52.292  57.171  0.00  0.00    +0.068 A 
ENDROOT
BRANCH   1  11
ATOM     11  CB  TRP A   1      32.539  51.803  59.626  0.00  0.00    +0.053 C 
BRANCH  11  12
ATOM     12  CA  TRP A   1      34.004  51.614  59.236  0.00  0.00    +0.137 C 
BRANCH  12  13
ATOM     13  N   TRP A   1      34.659  51.077  60.404  0.00  0.00    -0.239 NA
ATOM     14  H   TRP A   1      34.123  50.978  61.290  0.00  0.00    +0.142 HD
ENDBRANCH  12  13
BRANCH  12  15
ATOM     15  C   TRP A   1      34.641  52.925  58.757  0.00  0.00    +0.224 C 
ATOM     16  O   TRP A   1      34.888  53.117  57.563  0.00  0.00    -0.287 OA
ENDBRANCH  12  15
ENDBRANCH  11  12
ENDBRANCH   1  11
TORSDOF 4
REMARK  Name = ../refined-set-2016/2xeg/2xeg_pocket.pdb
REMARK  382 active torsions:
REMARK  status: ('A' for Active; 'I' for Inactive)
REMARK    1  A    between atoms: _1  and  _3
REMARK    2  A    between atoms: _3  and  _4
REMARK    3  A    between atoms: _7  and  _9
REMARK    4  A    between atoms: _9  and  _10
REMARK    5  A    between atoms: _9  and  _12
REMARK    6  A    between atoms: _12  and  _13
REMARK    7  A    between atoms: _19  and  _21
REMARK    8  A    between atoms: _21  and  _22
REMARK    9  A    between atoms: _21  and  _24
REMARK   10  A    between atoms: _24  and  _25
REMARK   11  A    between atoms: _30  and  _31
REMARK   12  A    between atoms: _33  and  _35
REMARK   13  A    between atoms: _35  and  _36
REMARK   14  A    between atoms: _38  and  _40
REMARK   15  A    between atoms: _40  and  _41
REMARK   16  A    between atoms: _40  and  _43
REMARK   17  A    between atoms: _43  and  _44
REMARK   18  A    between atoms: _44  and  _45
REMARK   19  A    between atoms: _45  and  _46
REMARK   20  A    between atoms: _46  and  _47
REMARK   21  A    between atoms: _51  and  _53
REMARK   22  A    between atoms: _53  and  _54
REMARK   23  A    between atoms: _53  and  _56
REMARK   24  A    between atoms: _59  and  _61
REMARK   25  A    between atoms: _61  and  _62
REMARK   26  A    between atoms: _61  and  _64
REMARK   27  A    between atoms: _64  and  _65
REMARK   28  A    between atoms: _71  and  _73
REMARK   29  A    between atoms: _73  and  _74
REMARK   30  A    between atoms: _73  and  _76
REMARK   31  A    between atoms: _76  and  _77
REMARK   32  A    between atoms: _77  and  _78
REMARK   33  A    between atoms: _78  and  _79
REMARK   34  A    between atoms: _88  and  _90
REMARK   35  A    between atoms: _90  and  _91
REMARK   36  A    between atoms: _93  and  _95
REMARK   37  A    between atoms: _95  and  _96
REMARK   38  A    between atoms: _95  and  _98
REMARK   39  A    between atoms: _98  and  _99
REMARK   40  A    between atoms: _99  and  _100
REMARK   41  A    between atoms: _100  and  _101
REMARK   42  A    between atoms: _101  and  _102
REMARK   43  A    between atoms: _106  and  _108
REMARK   44  A    between atoms: _108  and  _109
REMARK   45  A    between atoms: _108  and  _111
REMARK   46  A    between atoms: _111  and  _112
REMARK   47  A    between atoms: _115  and  _117
REMARK   48  A    between atoms: _117  and  _118
REMARK   49  A    between atoms: _117  and  _120
REMARK   50  A    between atoms: _120  and  _121
REMARK   51  A    between atoms: _126  and  _127
REMARK   52  A    between atoms: _129  and  _131
REMARK   53  A    between atoms: _131  and  _132
REMARK   54  A    between atoms: _131  and  _134
REMARK   55  A    between atoms: _134  and  _135
REMARK   56  A    between atoms: _135  and  _136
REMARK   57  A    between atoms: _141  and  _143
REMARK   58  A    between atoms: _143  and  _144
REMARK   59  A    between atoms: _143  and  _146
REMARK   60  A    between atoms: _146  and  _147
REMARK   61  A    between atoms: _147  and  _148
REMARK   62  A    between atoms: _148  and  _149
REMARK   63  A    between atoms: _158  and  _160
REMARK   64  A    between atoms: _160  and  _161
REMARK   65  A    between atoms: _163  and  _165
REMARK   66  A    between atoms: _165  and  _166
REMARK   67  A    between atoms: _165  and  _168
REMARK   68  A    between atoms: _168  and  _169
REMARK   69  A    between atoms: _174  and  _176
REMARK   70  A    between atoms: _176  and  _177
REMARK   71  A    between atoms: _176  and  _179
REMARK   72  A    between atoms: _179  and  _180
REMARK   73  A    between atoms: _183  and  _185
REMARK   74  A    between atoms: _185  and  _186
REMARK   75  A    between atoms: _185  and  _188
REMARK   76  A    between atoms: _188  and  _189
REMARK   77  A    between atoms: _192  and  _194
REMARK   78  A    between atoms: _194  and  _195
REMARK   79  A    between atoms: _194  and  _197
REMARK   80  A    between atoms: _197  and  _198
REMARK   81  A    between atoms: _203  and  _205
REMARK   82  A    between atoms: _205  and  _206
REMARK   83  A    between atoms: _205  and  _208
REMARK   84  A    between atoms: _208  and  _209
REMARK   85  A    between atoms: _212  and  _214
REMARK   86  A    between atoms: _214  and  _215
REMARK   87  A    between atoms: _214  and  _217
REMARK   88  A    between atoms: _217  and  _218
REMARK   89  A    between atoms: _223  and  _225
REMARK   90  A    between atoms: _225  and  _226
REMARK   91  A    between atoms: _228  and  _230
REMARK   92  A    between atoms: _230  and  _231
REMARK   93  A    between atoms: _230  and  _233
REMARK   94  A    between atoms: _233  and  _234
REMARK   95  A    between atoms: _238  and  ZN_939
REMARK   96  A    between atoms: _239  and  _241
REMARK   97  A    between atoms: _241  and  _242
REMARK   98  A    between atoms: _241  and  _244
REMARK   99  A    between atoms: _244  and  _245
REMARK  100  A    between atoms: _248  and  _250
REMARK  101  A    between atoms: _250  and  _251
REMARK  102  A    between atoms: _250  and  _253
REMARK  103  A    between atoms: _253  and  _254
REMARK  104  A    between atoms: _264  and  _266
REMARK  105  A    between atoms: _266  and  _267
REMARK  106  A    between atoms: _266  and  _269
REMARK  107  A    between atoms: _269  and  _270
REMARK  108  A    between atoms: _273  and  _275
REMARK  109  A    between atoms: _275  and  _276
REMARK  110  A    between atoms: _275  and  _278
REMARK  111  A    between atoms: _278  and  _279
REMARK  112  A    between atoms: _279  and  _280
REMARK  113  A    between atoms: _279  and  _281
REMARK  114  A    between atoms: _280  and  ZN_939
REMARK  115  A    between atoms: _281  and  ZN_938
REMARK  116  A    between atoms: _283  and  _284
REMARK  117  A    between atoms: _289  and  _291
REMARK  118  A    between atoms: _291  and  _292
REMARK  119  A    between atoms: _295  and  _297
REMARK  120  A    between atoms: _297  and  _298
REMARK  121  A    between atoms: _297  and  _300
REMARK  122  A    between atoms: _300  and  _301
REMARK  123  A    between atoms: _301  and  _302
REMARK  124  A    between atoms: _305  and  _307
REMARK  125  A    between atoms: _307  and  _308
REMARK  126  A    between atoms: _307  and  _310
REMARK  127  A    between atoms: _310  and  _311
REMARK  128  A    between atoms: _311  and  _312
REMARK  129  A    between atoms: _312  and  _314
REMARK  130  A    between atoms: _314  and  ZN_938
REMARK  131  A    between atoms: _315  and  _317
REMARK  132  A    between atoms: _317  and  _318
REMARK  133  A    between atoms: _317  and  _320
REMARK  134  A    between atoms: _320  and  _321
REMARK  135  A    between atoms: _327  and  _329
REMARK  136  A    between atoms: _329  and  _330
REMARK  137  A    between atoms: _332  and  _334
REMARK  138  A    between atoms: _334  and  _335
REMARK  139  A    between atoms: _334  and  _337
REMARK  140  A    between atoms: _337  and  _338
REMARK  141  A    between atoms: _341  and  _343
REMARK  142  A    between atoms: _343  and  _344
REMARK  143  A    between atoms: _343  and  _346
REMARK  144  A    between atoms: _346  and  _347
REMARK  145  A    between atoms: _350  and  _352
REMARK  146  A    between atoms: _352  and  _353
REMARK  147  A    between atoms: _352  and  _355
REMARK  148  A    between atoms: _355  and  _356
REMARK  149  A    between atoms: _361  and  _363
REMARK  150  A    between atoms: _363  and  _364
REMARK  151  A    between atoms: _363  and  _366
REMARK  152  A    between atoms: _366  and  _367
REMARK  153  A    between atoms: _367  and  _369
REMARK  154  A    between atoms: _369  and  ZN_939
REMARK  155  A    between atoms: _370  and  _372
REMARK  156  A    between atoms: _372  and  _373
REMARK  157  A    between atoms: _372  and  _375
REMARK  158  A    between atoms: _375  and  _376
REMARK  159  A    between atoms: _378  and  _380
REMARK  160  A    between atoms: _380  and  _381
REMARK  161  A    between atoms: _380  and  _383
REMARK  162  A    between atoms: _383  and  _384
REMARK  163  A    between atoms: _386  and  _388
REMARK  164  A    between atoms: _388  and  _389
REMARK  165  A    between atoms: _388  and  _391
REMARK  166  A    between atoms: _391  and  _392
REMARK  167  A    between atoms: _395  and  _397
REMARK  168  A    between atoms: _397  and  _398
REMARK  169  A    between atoms: _397  and  _400
REMARK  170  A    between atoms: _400  and  _401
REMARK  171  A    between atoms: _401  and  _402
REMARK  172  A    between atoms: _405  and  _407
REMARK  173  A    between atoms: _407  and  _408
REMARK  174  A    between atoms: _407  and  _410
REMARK  175  A    between atoms: _410  and  _411
REMARK  176  A    between atoms: _416  and  _417
REMARK  177  A    between atoms: _419  and  _421
REMARK  178  A    between atoms: _421  and  _422
REMARK  179  A    between atoms: _421  and  _424
REMARK  180  A    between atoms: _424  and  _425
REMARK  181  A    between atoms: _428  and  _430
REMARK  182  A    between atoms: _430  and  _431
REMARK  183  A    between atoms: _430  and  _433
REMARK  184  A    between atoms: _433  and  _434
REMARK  185  A    between atoms: _437  and  _439
REMARK  186  A    between atoms: _439  and  _440
REMARK  187  A    between atoms: _439  and  _442
REMARK  188  A    between atoms: _442  and  _443
REMARK  189  A    between atoms: _443  and  _444
REMARK  190  A    between atoms: _444  and  _445
REMARK  191  A    between atoms: _454  and  _456
REMARK  192  A    between atoms: _456  and  _457
REMARK  193  A    between atoms: _456  and  _459
REMARK  194  A    between atoms: _462  and  _464
REMARK  195  A    between atoms: _464  and  _465
REMARK  196  A    between atoms: _464  and  _467
REMARK  197  A    between atoms: _467  and  _468
REMARK  198  A    between atoms: _471  and  _473
REMARK  199  A    between atoms: _473  and  _474
REMARK  200  A    between atoms: _473  and  _476
REMARK  201  A    between atoms: _476  and  _477
REMARK  202  A    between atoms: _487  and  _489
REMARK  203  A    between atoms: _489  and  _490
REMARK  204  A    between atoms: _489  and  _492
REMARK  205  A    between atoms: _492  and  _493
REMARK  206  A    between atoms: _493  and  _494
REMARK  207  A    between atoms: _494  and  _495
REMARK  208  A    between atoms: _495  and  _496
REMARK  209  A    between atoms: _500  and  _502
REMARK  210  A    between atoms: _502  and  _503
REMARK  211  A    between atoms: _502  and  _505
REMARK  212  A    between atoms: _505  and  _506
REMARK  213  A    between atoms: _509  and  _510
REMARK  214  A    between atoms: _516  and  _517
REMARK  215  A    between atoms: _522  and  _524
REMARK  216  A    between atoms: _524  and  _525
REMARK  217  A    between atoms: _524  and  _527
REMARK  218  A    between atoms: _527  and  _528
REMARK  219  A    between atoms: _528  and  _529
REMARK  220  A    between atoms: _529  and  _530
REMARK  221  A    between atoms: _539  and  _541
REMARK  222  A    between atoms: _541  and  _542
REMARK  223  A    between atoms: _541  and  _544
REMARK  224  A    between atoms: _544  and  _545
REMARK  225  A    between atoms: _548  and  _550
REMARK  226  A    between atoms: _550  and  _551
REMARK  227  A    between atoms: _550  and  _553
REMARK  228  A    between atoms: _553  and  _554
REMARK  229  A    between atoms: _556  and  _558
REMARK  230  A    between atoms: _558  and  _559
REMARK  231  A    between atoms: _558  and  _561
REMARK  232  A    between atoms: _561  and  _562
REMARK  233  A    between atoms: _562  and  _563
REMARK  234  A    between atoms: _563  and  _564
REMARK  235  A    between atoms: _564  and  _565
REMARK  236  A    between atoms: _569  and  _571
REMARK  237  A    between atoms: _571  and  _572
REMARK  238  A    between atoms: _571  and  _574
REMARK  239  A    between atoms: _574  and  _575
REMARK  240  A    between atoms: _578  and  _580
REMARK  241  A    between atoms: _580  and  _581
REMARK  242  A    between atoms: _583  and  _585
REMARK  243  A    between atoms: _585  and  _586
REMARK  244  A    between atoms: _585  and  _588
REMARK  245  A    between atoms: _588  and  _589
REMARK  246  A    between atoms: _591  and  _593
REMARK  247  A    between atoms: _593  and  _594
REMARK  248  A    between atoms: _596  and  _598
REMARK  249  A    between atoms: _598  and  _599
REMARK  250  A    between atoms: _598  and  _601
REMARK  251  A    between atoms: _601  and  _602
REMARK  252  A    between atoms: _607  and  _609
REMARK  253  A    between atoms: _609  and  _610
REMARK  254  A    between atoms: _609  and  _612
REMARK  255  A    between atoms: _612  and  _613
REMARK  256  A    between atoms: _616  and  _618
REMARK  257  A    between atoms: _618  and  _619
REMARK  258  A    between atoms: _618  and  _621
REMARK  259  A    between atoms: _621  and  _622
REMARK  260  A    between atoms: _628  and  _630
REMARK  261  A    between atoms: _630  and  _631
REMARK  262  A    between atoms: _630  and  _633
REMARK  263  A    between atoms: _633  and  _634
REMARK  264  A    between atoms: _634  and  _635
REMARK  265  A    between atoms: _638  and  _640
REMARK  266  A    between atoms: _640  and  _641
REMARK  267  A    between atoms: _640  and  _643
REMARK  268  A    between atoms: _643  and  _644
REMARK  269  A    between atoms: _644  and  _645
REMARK  270  A    between atoms: _645  and  _646
REMARK  271  A    between atoms: _655  and  _657
REMARK  272  A    between atoms: _657  and  _658
REMARK  273  A    between atoms: _657  and  _660
REMARK  274  A    between atoms: _660  and  _661
REMARK  275  A    between atoms: _661  and  _662
REMARK  276  A    between atoms: _662  and  _663
REMARK  277  A    between atoms: _672  and  _674
REMARK  278  A    between atoms: _674  and  _675
REMARK  279  A    between atoms: _674  and  _677
REMARK  280  A    between atoms: _677  and  _678
REMARK  281  A    between atoms: _683  and  _684
REMARK  282  A    between atoms: _686  and  _688
REMARK  283  A    between atoms: _688  and  _689
REMARK  284  A    between atoms: _688  and  _691
REMARK  285  A    between atoms: _691  and  _692
REMARK  286  A    between atoms: _695  and  _697
REMARK  287  A    between atoms: _697  and  _698
REMARK  288  A    between atoms: _697  and  _700
REMARK  289  A    between atoms: _700  and  _701
REMARK  290  A    between atoms: _701  and  _702
REMARK  291  A    between atoms: _702  and  _703
REMARK  292  A    between atoms: _703  and  _704
REMARK  293  A    between atoms: _708  and  _710
REMARK  294  A    between atoms: _710  and  _711
REMARK  295  A    between atoms: _710  and  _713
REMARK  296  A    between atoms: _713  and  _714
REMARK  297  A    between atoms: _719  and  _721
REMARK  298  A    between atoms: _721  and  _722
REMARK  299  A    between atoms: _721  and  _724
REMARK  300  A    between atoms: _724  and  _725
REMARK  301  A    between atoms: _735  and  _737
REMARK  302  A    between atoms: _737  and  _738
REMARK  303  A    between atoms: _737  and  _740
REMARK  304  A    between atoms: _740  and  _741
REMARK  305  A    between atoms: _741  and  _742
REMARK  306  A    between atoms: _745  and  _747
REMARK  307  A    between atoms: _747  and  _748
REMARK  308  A    between atoms: _747  and  _750
REMARK  309  A    between atoms: _750  and  _751
REMARK  310  A    between atoms: _754  and  _756
REMARK  311  A    between atoms: _756  and  _757
REMARK  312  A    between atoms: _756  and  _759
REMARK  313  A    between atoms: _759  and  _760
REMARK  314  A    between atoms: _765  and  _767
REMARK  315  A    between atoms: _767  and  _768
REMARK  316  A    between atoms: _767  and  _770
REMARK  317  A    between atoms: _770  and  _771
REMARK  318  A    between atoms: _777  and  _779
REMARK  319  A    between atoms: _779  and  _780
REMARK  320  A    between atoms: _779  and  _782
REMARK  321  A    between atoms: _782  and  _783
REMARK  322  A    between atoms: _785  and  _787
REMARK  323  A    between atoms: _787  and  _788
REMARK  324  A    between atoms: _790  and  _792
REMARK  325  A    between atoms: _792  and  _793
REMARK  326  A    between atoms: _792  and  _795
REMARK  327  A    between atoms: _795  and  _796
REMARK  328  A    between atoms: _801  and  _802
REMARK  329  A    between atoms: _804  and  _806
REMARK  330  A    between atoms: _806  and  _807
REMARK  331  A    between atoms: _806  and  _809
REMARK  332  A    between atoms: _809  and  _810
REMARK  333  A    between atoms: _815  and  _816
REMARK  334  A    between atoms: _818  and  _820
REMARK  335  A    between atoms: _820  and  _821
REMARK  336  A    between atoms: _820  and  _823
REMARK  337  A    between atoms: _823  and  _824
REMARK  338  A    between atoms: _828  and  ZN_938
REMARK  339  A    between atoms: _829  and  _831
REMARK  340  A    between atoms: _831  and  _832
REMARK  341  A    between atoms: _831  and  _834
REMARK  342  A    between atoms: _834  and  _835
REMARK  343  A    between atoms: _835  and  _836
REMARK  344  A    between atoms: _839  and  _841
REMARK  345  A    between atoms: _841  and  _842
REMARK  346  A    between atoms: _841  and  _844
REMARK  347  A    between atoms: _844  and  _845
REMARK  348  A    between atoms: _845  and  _846
REMARK  349  A    between atoms: _846  and  _847
REMARK  350  A    between atoms: _856  and  _858
REMARK  351  A    between atoms: _858  and  _859
REMARK  352  A    between atoms: _858  and  _861
REMARK  353  A    between atoms: _861  and  _862
REMARK  354  A    between atoms: _867  and  _868
REMARK  355  A    between atoms: _870  and  _872
REMARK  356  A    between atoms: _872  and  _873
REMARK  357  A    between atoms: _872  and  _875
REMARK  358  A    between atoms: _875  and  _876
REMARK  359  A    between atoms: _878  and  _880
REMARK  360  A    between atoms: _880  and  _881
REMARK  361  A    between atoms: _880  and  _883
REMARK  362  A    between atoms: _883  and  _884
REMARK  363  A    between atoms: _889  and  _891
REMARK  364  A    between atoms: _891  and  _892
REMARK  365  A    between atoms: _891  and  _894
REMARK  366  A    between atoms: _894  and  _895
REMARK  367  A    between atoms: _900  and  _902
REMARK  368  A    between atoms: _902  and  _903
REMARK  369  A    between atoms: _902  and  _905
REMARK  370  A    between atoms: _905  and  _906
REMARK  371  A    between atoms: _906  and  _907
REMARK  372  A    between atoms: _907  and  _908
REMARK  373  A    between atoms: _908  and  _909
REMARK  374  A    between atoms: _913  and  _915
REMARK  375  A    between atoms: _915  and  _916
REMARK  376  A    between atoms: _915  and  _918
REMARK  377  A    between atoms: _918  and  _919
REMARK  378  A    between atoms: _924  and  _925
REMARK  379  A    between atoms: _927  and  _929
REMARK  380  A    between atoms: _929  and  _930
REMARK  381  A    between atoms: _933  and  _935
REMARK  382  A    between atoms: _935  and  _936
REMARK                            x       y       z     vdW  Elec       q    Type
REMARK                         _______ _______ _______ _____ _____    ______ ____
ROOT
ATOM      1  C   LYS A   1      37.273  52.307  54.805  0.00  0.00    +0.238 C 
ATOM      2  N   SER A   2      36.341  53.162  55.220  0.00  0.00    -0.295 N 
ATOM      3  H   SER A   2      36.213  53.317  56.240  0.00  0.00    +0.150 HD
ATOM      4  O   LYS A   1      37.529  52.102  53.604  0.00  0.00    -0.274 OA
ENDROOT
BRANCH   1   5
ATOM      5  CA  LYS A   1      38.006  51.519  55.888  0.00  0.00    +0.145 C 
BRANCH   5   6
ATOM      6  N   LYS A   1      38.109  52.200  57.201  0.00  0.00    -0.238 NA
ATOM      7  H   LYS A   1      37.472  51.902  57.967  0.00  0.00    +0.142 HD
ENDBRANCH   5   6
BRANCH   5   8
ATOM      8  CB  LYS A   1      37.327  50.169  56.085  0.00  0.00    +0.026 C 
BRANCH   8   9
ATOM      9  CG  LYS A   1      38.221  49.169  56.851  0.00  0.00    -0.000 C 
BRANCH   9  10
ATOM     10  CD  LYS A   1      37.470  47.828  56.998  0.00  0.00    -0.024 C 
BRANCH  10  11
ATOM     11  CE  LYS A   1      38.408  46.736  57.560  0.00  0.00    -0.086 C 
BRANCH  11  12
ATOM     12  NZ  LYS A   1      37.759  45.387  57.578  0.00  0.00    +0.380 N 
ATOM     13  HZ1 LYS A   1      36.908  45.421  58.175  0.00  0.00    -0.089 HD
ATOM     14  HZ2 LYS A   1      38.426  44.688  57.963  0.00  0.00    -0.089 HD
ATOM     15  HZ3 LYS A   1      37.494  45.118  56.609  0.00  0.00    -0.089 HD
ENDBRANCH  11  12
ENDBRANCH  10  11
ENDBRANCH   9  10
ENDBRANCH   8   9
ENDBRANCH   5   8
ENDBRANCH   1   5
BRANCH   2  16
ATOM     16  CA  SER A   2      35.496  53.886  54.279  0.00  0.00    +0.178 C 
BRANCH  16  17
ATOM     17  C   SER A   2      35.330  55.347  54.699  0.00  0.00    +0.246 C 
ATOM     18  O   SER A   2      34.245  55.769  55.086  0.00  0.00    -0.273 OA
ATOM     19  N   PRO A   3      36.426  56.129  54.624  0.00  0.00    -0.273 N 
ATOM     20  CA  PRO A   3      36.353  57.505  55.113  0.00  0.00    +0.140 C 
ATOM     21  CB  PRO A   3      37.810  58.008  55.008  0.00  0.00    +0.030 C 
ATOM     22  CG  PRO A   3      38.479  57.064  54.033  0.00  0.00    +0.024 C 
ATOM     23  CD  PRO A   3      37.792  55.733  54.214  0.00  0.00    +0.094 C 
BRANCH  20  24
ATOM     24  C   PRO A   3      35.439  58.350  54.257  0.00  0.00    +0.227 C 
ATOM     25  O   PRO A   3      35.357  58.172  53.042  0.00  0.00    -0.286 OA
ENDBRANCH  20  24
ENDBRANCH  16  17
BRANCH  16  26
ATOM     26  CB  SER A   2      34.117  53.214  54.186  0.00  0.00    +0.166 C 
BRANCH  26  27
ATOM     27  OG  SER A   2      33.461  53.694  53.036  0.00  0.00    -0.380 OA
ATOM     28  H   SER A   2      32.570  53.268  52.964  0.00  0.00    +0.211 HD
ENDBRANCH  26  27
ENDBRANCH  16  26
ENDBRANCH   2  16
TORSDOF 12
REMARK  Name = ../refined-set-2016/2xeg/2xeg_pocket.pdb
REMARK  382 active torsions:
REMARK  status: ('A' for Active; 'I' for Inactive)
REMARK    1  A    between atoms: _1  and  _3
REMARK    2  A    between atoms: _3  and  _4
REMARK    3  A    between atoms: _7  and  _9
REMARK    4  A    between atoms: _9  and  _10
REMARK    5  A    between atoms: _9  and  _12
REMARK    6  A    between atoms: _12  and  _13
REMARK    7  A    between atoms: _19  and  _21
REMARK    8  A    between atoms: _21  and  _22
REMARK    9  A    between atoms: _21  and  _24
REMARK   10  A    between atoms: _24  and  _25
REMARK   11  A    between atoms: _30  and  _31
REMARK   12  A    between atoms: _33  and  _35
REMARK   13  A    between atoms: _35  and  _36
REMARK   14  A    between atoms: _38  and  _40
REMARK   15  A    between atoms: _40  and  _41
REMARK   16  A    between atoms: _40  and  _43
REMARK   17  A    between atoms: _43  and  _44
REMARK   18  A    between atoms: _44  and  _45
REMARK   19  A    between atoms: _45  and  _46
REMARK   20  A    between atoms: _46  and  _47
REMARK   21  A    between atoms: _51  and  _53
REMARK   22  A    between atoms: _53  and  _54
REMARK   23  A    between atoms: _53  and  _56
REMARK   24  A    between atoms: _59  and  _61
REMARK   25  A    between atoms: _61  and  _62
REMARK   26  A    between atoms: _61  and  _64
REMARK   27  A    between atoms: _64  and  _65
REMARK   28  A    between atoms: _71  and  _73
REMARK   29  A    between atoms: _73  and  _74
REMARK   30  A    between atoms: _73  and  _76
REMARK   31  A    between atoms: _76  and  _77
REMARK   32  A    between atoms: _77  and  _78
REMARK   33  A    between atoms: _78  and  _79
REMARK   34  A    between atoms: _88  and  _90
REMARK   35  A    between atoms: _90  and  _91
REMARK   36  A    between atoms: _93  and  _95
REMARK   37  A    between atoms: _95  and  _96
REMARK   38  A    between atoms: _95  and  _98
REMARK   39  A    between atoms: _98  and  _99
REMARK   40  A    between atoms: _99  and  _100
REMARK   41  A    between atoms: _100  and  _101
REMARK   42  A    between atoms: _101  and  _102
REMARK   43  A    between atoms: _106  and  _108
REMARK   44  A    between atoms: _108  and  _109
REMARK   45  A    between atoms: _108  and  _111
REMARK   46  A    between atoms: _111  and  _112
REMARK   47  A    between atoms: _115  and  _117
REMARK   48  A    between atoms: _117  and  _118
REMARK   49  A    between atoms: _117  and  _120
REMARK   50  A    between atoms: _120  and  _121
REMARK   51  A    between atoms: _126  and  _127
REMARK   52  A    between atoms: _129  and  _131
REMARK   53  A    between atoms: _131  and  _132
REMARK   54  A    between atoms: _131  and  _134
REMARK   55  A    between atoms: _134  and  _135
REMARK   56  A    between atoms: _135  and  _136
REMARK   57  A    between atoms: _141  and  _143
REMARK   58  A    between atoms: _143  and  _144
REMARK   59  A    between atoms: _143  and  _146
REMARK   60  A    between atoms: _146  and  _147
REMARK   61  A    between atoms: _147  and  _148
REMARK   62  A    between atoms: _148  and  _149
REMARK   63  A    between atoms: _158  and  _160
REMARK   64  A    between atoms: _160  and  _161
REMARK   65  A    between atoms: _163  and  _165
REMARK   66  A    between atoms: _165  and  _166
REMARK   67  A    between atoms: _165  and  _168
REMARK   68  A    between atoms: _168  and  _169
REMARK   69  A    between atoms: _174  and  _176
REMARK   70  A    between atoms: _176  and  _177
REMARK   71  A    between atoms: _176  and  _179
REMARK   72  A    between atoms: _179  and  _180
REMARK   73  A    between atoms: _183  and  _185
REMARK   74  A    between atoms: _185  and  _186
REMARK   75  A    between atoms: _185  and  _188
REMARK   76  A    between atoms: _188  and  _189
REMARK   77  A    between atoms: _192  and  _194
REMARK   78  A    between atoms: _194  and  _195
REMARK   79  A    between atoms: _194  and  _197
REMARK   80  A    between atoms: _197  and  _198
REMARK   81  A    between atoms: _203  and  _205
REMARK   82  A    between atoms: _205  and  _206
REMARK   83  A    between atoms: _205  and  _208
REMARK   84  A    between atoms: _208  and  _209
REMARK   85  A    between atoms: _212  and  _214
REMARK   86  A    between atoms: _214  and  _215
REMARK   87  A    between atoms: _214  and  _217
REMARK   88  A    between atoms: _217  and  _218
REMARK   89  A    between atoms: _223  and  _225
REMARK   90  A    between atoms: _225  and  _226
REMARK   91  A    between atoms: _228  and  _230
REMARK   92  A    between atoms: _230  and  _231
REMARK   93  A    between atoms: _230  and  _233
REMARK   94  A    between atoms: _233  and  _234
REMARK   95  A    between atoms: _238  and  ZN_939
REMARK   96  A    between atoms: _239  and  _241
REMARK   97  A    between atoms: _241  and  _242
REMARK   98  A    between atoms: _241  and  _244
REMARK   99  A    between atoms: _244  and  _245
REMARK  100  A    between atoms: _248  and  _250
REMARK  101  A    between atoms: _250  and  _251
REMARK  102  A    between atoms: _250  and  _253
REMARK  103  A    between atoms: _253  and  _254
REMARK  104  A    between atoms: _264  and  _266
REMARK  105  A    between atoms: _266  and  _267
REMARK  106  A    between atoms: _266  and  _269
REMARK  107  A    between atoms: _269  and  _270
REMARK  108  A    between atoms: _273  and  _275
REMARK  109  A    between atoms: _275  and  _276
REMARK  110  A    between atoms: _275  and  _278
REMARK  111  A    between atoms: _278  and  _279
REMARK  112  A    between atoms: _279  and  _280
REMARK  113  A    between atoms: _279  and  _281
REMARK  114  A    between atoms: _280  and  ZN_939
REMARK  115  A    between atoms: _281  and  ZN_938
REMARK  116  A    between atoms: _283  and  _284
REMARK  117  A    between atoms: _289  and  _291
REMARK  118  A    between atoms: _291  and  _292
REMARK  119  A    between atoms: _295  and  _297
REMARK  120  A    between atoms: _297  and  _298
REMARK  121  A    between atoms: _297  and  _300
REMARK  122  A    between atoms: _300  and  _301
REMARK  123  A    between atoms: _301  and  _302
REMARK  124  A    between atoms: _305  and  _307
REMARK  125  A    between atoms: _307  and  _308
REMARK  126  A    between atoms: _307  and  _310
REMARK  127  A    between atoms: _310  and  _311
REMARK  128  A    between atoms: _311  and  _312
REMARK  129  A    between atoms: _312  and  _314
REMARK  130  A    between atoms: _314  and  ZN_938
REMARK  131  A    between atoms: _315  and  _317
REMARK  132  A    between atoms: _317  and  _318
REMARK  133  A    between atoms: _317  and  _320
REMARK  134  A    between atoms: _320  and  _321
REMARK  135  A    between atoms: _327  and  _329
REMARK  136  A    between atoms: _329  and  _330
REMARK  137  A    between atoms: _332  and  _334
REMARK  138  A    between atoms: _334  and  _335
REMARK  139  A    between atoms: _334  and  _337
REMARK  140  A    between atoms: _337  and  _338
REMARK  141  A    between atoms: _341  and  _343
REMARK  142  A    between atoms: _343  and  _344
REMARK  143  A    between atoms: _343  and  _346
REMARK  144  A    between atoms: _346  and  _347
REMARK  145  A    between atoms: _350  and  _352
REMARK  146  A    between atoms: _352  and  _353
REMARK  147  A    between atoms: _352  and  _355
REMARK  148  A    between atoms: _355  and  _356
REMARK  149  A    between atoms: _361  and  _363
REMARK  150  A    between atoms: _363  and  _364
REMARK  151  A    between atoms: _363  and  _366
REMARK  152  A    between atoms: _366  and  _367
REMARK  153  A    between atoms: _367  and  _369
REMARK  154  A    between atoms: _369  and  ZN_939
REMARK  155  A    between atoms: _370  and  _372
REMARK  156  A    between atoms: _372  and  _373
REMARK  157  A    between atoms: _372  and  _375
REMARK  158  A    between atoms: _375  and  _376
REMARK  159  A    between atoms: _378  and  _380
REMARK  160  A    between atoms: _380  and  _381
REMARK  161  A    between atoms: _380  and  _383
REMARK  162  A    between atoms: _383  and  _384
REMARK  163  A    between atoms: _386  and  _388
REMARK  164  A    between atoms: _388  and  _389
REMARK  165  A    between atoms: _388  and  _391
REMARK  166  A    between atoms: _391  and  _392
REMARK  167  A    between atoms: _395  and  _397
REMARK  168  A    between atoms: _397  and  _398
REMARK  169  A    between atoms: _397  and  _400
REMARK  170  A    between atoms: _400  and  _401
REMARK  171  A    between atoms: _401  and  _402
REMARK  172  A    between atoms: _405  and  _407
REMARK  173  A    between atoms: _407  and  _408
REMARK  174  A    between atoms: _407  and  _410
REMARK  175  A    between atoms: _410  and  _411
REMARK  176  A    between atoms: _416  and  _417
REMARK  177  A    between atoms: _419  and  _421
REMARK  178  A    between atoms: _421  and  _422
REMARK  179  A    between atoms: _421  and  _424
REMARK  180  A    between atoms: _424  and  _425
REMARK  181  A    between atoms: _428  and  _430
REMARK  182  A    between atoms: _430  and  _431
REMARK  183  A    between atoms: _430  and  _433
REMARK  184  A    between atoms: _433  and  _434
REMARK  185  A    between atoms: _437  and  _439
REMARK  186  A    between atoms: _439  and  _440
REMARK  187  A    between atoms: _439  and  _442
REMARK  188  A    between atoms: _442  and  _443
REMARK  189  A    between atoms: _443  and  _444
REMARK  190  A    between atoms: _444  and  _445
REMARK  191  A    between atoms: _454  and  _456
REMARK  192  A    between atoms: _456  and  _457
REMARK  193  A    between atoms: _456  and  _459
REMARK  194  A    between atoms: _462  and  _464
REMARK  195  A    between atoms: _464  and  _465
REMARK  196  A    between atoms: _464  and  _467
REMARK  197  A    between atoms: _467  and  _468
REMARK  198  A    between atoms: _471  and  _473
REMARK  199  A    between atoms: _473  and  _474
REMARK  200  A    between atoms: _473  and  _476
REMARK  201  A    between atoms: _476  and  _477
REMARK  202  A    between atoms: _487  and  _489
REMARK  203  A    between atoms: _489  and  _490
REMARK  204  A    between atoms: _489  and  _492
REMARK  205  A    between atoms: _492  and  _493
REMARK  206  A    between atoms: _493  and  _494
REMARK  207  A    between atoms: _494  and  _495
REMARK  208  A    between atoms: _495  and  _496
REMARK  209  A    between atoms: _500  and  _502
REMARK  210  A    between atoms: _502  and  _503
REMARK  211  A    between atoms: _502  and  _505
REMARK  212  A    between atoms: _505  and  _506
REMARK  213  A    between atoms: _509  and  _510
REMARK  214  A    between atoms: _516  and  _517
REMARK  215  A    between atoms: _522  and  _524
REMARK  216  A    between atoms: _524  and  _525
REMARK  217  A    between atoms: _524  and  _527
REMARK  218  A    between atoms: _527  and  _528
REMARK  219  A    between atoms: _528  and  _529
REMARK  220  A    between atoms: _529  and  _530
REMARK  221  A    between atoms: _539  and  _541
REMARK  222  A    between atoms: _541  and  _542
REMARK  223  A    between atoms: _541  and  _544
REMARK  224  A    between atoms: _544  and  _545
REMARK  225  A    between atoms: _548  and  _550
REMARK  226  A    between atoms: _550  and  _551
REMARK  227  A    between atoms: _550  and  _553
REMARK  228  A    between atoms: _553  and  _554
REMARK  229  A    between atoms: _556  and  _558
REMARK  230  A    between atoms: _558  and  _559
REMARK  231  A    between atoms: _558  and  _561
REMARK  232  A    between atoms: _561  and  _562
REMARK  233  A    between atoms: _562  and  _563
REMARK  234  A    between atoms: _563  and  _564
REMARK  235  A    between atoms: _564  and  _565
REMARK  236  A    between atoms: _569  and  _571
REMARK  237  A    between atoms: _571  and  _572
REMARK  238  A    between atoms: _571  and  _574
REMARK  239  A    between atoms: _574  and  _575
REMARK  240  A    between atoms: _578  and  _580
REMARK  241  A    between atoms: _580  and  _581
REMARK  242  A    between atoms: _583  and  _585
REMARK  243  A    between atoms: _585  and  _586
REMARK  244  A    between atoms: _585  and  _588
REMARK  245  A    between atoms: _588  and  _589
REMARK  246  A    between atoms: _591  and  _593
REMARK  247  A    between atoms: _593  and  _594
REMARK  248  A    between atoms: _596  and  _598
REMARK  249  A    between atoms: _598  and  _599
REMARK  250  A    between atoms: _598  and  _601
REMARK  251  A    between atoms: _601  and  _602
REMARK  252  A    between atoms: _607  and  _609
REMARK  253  A    between atoms: _609  and  _610
REMARK  254  A    between atoms: _609  and  _612
REMARK  255  A    between atoms: _612  and  _613
REMARK  256  A    between atoms: _616  and  _618
REMARK  257  A    between atoms: _618  and  _619
REMARK  258  A    between atoms: _618  and  _621
REMARK  259  A    between atoms: _621  and  _622
REMARK  260  A    between atoms: _628  and  _630
REMARK  261  A    between atoms: _630  and  _631
REMARK  262  A    between atoms: _630  and  _633
REMARK  263  A    between atoms: _633  and  _634
REMARK  264  A    between atoms: _634  and  _635
REMARK  265  A    between atoms: _638  and  _640
REMARK  266  A    between atoms: _640  and  _641
REMARK  267  A    between atoms: _640  and  _643
REMARK  268  A    between atoms: _643  and  _644
REMARK  269  A    between atoms: _644  and  _645
REMARK  270  A    between atoms: _645  and  _646
REMARK  271  A    between atoms: _655  and  _657
REMARK  272  A    between atoms: _657  and  _658
REMARK  273  A    between atoms: _657  and  _660
REMARK  274  A    between atoms: _660  and  _661
REMARK  275  A    between atoms: _661  and  _662
REMARK  276  A    between atoms: _662  and  _663
REMARK  277  A    between atoms: _672  and  _674
REMARK  278  A    between atoms: _674  and  _675
REMARK  279  A    between atoms: _674  and  _677
REMARK  280  A    between atoms: _677  and  _678
REMARK  281  A    between atoms: _683  and  _684
REMARK  282  A    between atoms: _686  and  _688
REMARK  283  A    between atoms: _688  and  _689
REMARK  284  A    between atoms: _688  and  _691
REMARK  285  A    between atoms: _691  and  _692
REMARK  286  A    between atoms: _695  and  _697
REMARK  287  A    between atoms: _697  and  _698
REMARK  288  A    between atoms: _697  and  _700
REMARK  289  A    between atoms: _700  and  _701
REMARK  290  A    between atoms: _701  and  _702
REMARK  291  A    between atoms: _702  and  _703
REMARK  292  A    between atoms: _703  and  _704
REMARK  293  A    between atoms: _708  and  _710
REMARK  294  A    between atoms: _710  and  _711
REMARK  295  A    between atoms: _710  and  _713
REMARK  296  A    between atoms: _713  and  _714
REMARK  297  A    between atoms: _719  and  _721
REMARK  298  A    between atoms: _721  and  _722
REMARK  299  A    between atoms: _721  and  _724
REMARK  300  A    between atoms: _724  and  _725
REMARK  301  A    between atoms: _735  and  _737
REMARK  302  A    between atoms: _737  and  _738
REMARK  303  A    between atoms: _737  and  _740
REMARK  304  A    between atoms: _740  and  _741
REMARK  305  A    between atoms: _741  and  _742
REMARK  306  A    between atoms: _745  and  _747
REMARK  307  A    between atoms: _747  and  _748
REMARK  308  A    between atoms: _747  and  _750
REMARK  309  A    between atoms: _750  and  _751
REMARK  310  A    between atoms: _754  and  _756
REMARK  311  A    between atoms: _756  and  _757
REMARK  312  A    between atoms: _756  and  _759
REMARK  313  A    between atoms: _759  and  _760
REMARK  314  A    between atoms: _765  and  _767
REMARK  315  A    between atoms: _767  and  _768
REMARK  316  A    between atoms: _767  and  _770
REMARK  317  A    between atoms: _770  and  _771
REMARK  318  A    between atoms: _777  and  _779
REMARK  319  A    between atoms: _779  and  _780
REMARK  320  A    between atoms: _779  and  _782
REMARK  321  A    between atoms: _782  and  _783
REMARK  322  A    between atoms: _785  and  _787
REMARK  323  A    between atoms: _787  and  _788
REMARK  324  A    between atoms: _790  and  _792
REMARK  325  A    between atoms: _792  and  _793
REMARK  326  A    between atoms: _792  and  _795
REMARK  327  A    between atoms: _795  and  _796
REMARK  328  A    between atoms: _801  and  _802
REMARK  329  A    between atoms: _804  and  _806
REMARK  330  A    between atoms: _806  and  _807
REMARK  331  A    between atoms: _806  and  _809
REMARK  332  A    between atoms: _809  and  _810
REMARK  333  A    between atoms: _815  and  _816
REMARK  334  A    between atoms: _818  and  _820
REMARK  335  A    between atoms: _820  and  _821
REMARK  336  A    between atoms: _820  and  _823
REMARK  337  A    between atoms: _823  and  _824
REMARK  338  A    between atoms: _828  and  ZN_938
REMARK  339  A    between atoms: _829  and  _831
REMARK  340  A    between atoms: _831  and  _832
REMARK  341  A    between atoms: _831  and  _834
REMARK  342  A    between atoms: _834  and  _835
REMARK  343  A    between atoms: _835  and  _836
REMARK  344  A    between atoms: _839  and  _841
REMARK  345  A    between atoms: _841  and  _842
REMARK  346  A    between atoms: _841  and  _844
REMARK  347  A    between atoms: _844  and  _845
REMARK  348  A    between atoms: _845  and  _846
REMARK  349  A    between atoms: _846  and  _847
REMARK  350  A    between atoms: _856  and  _858
REMARK  351  A    between atoms: _858  and  _859
REMARK  352  A    between atoms: _858  and  _861
REMARK  353  A    between atoms: _861  and  _862
REMARK  354  A    between atoms: _867  and  _868
REMARK  355  A    between atoms: _870  and  _872
REMARK  356  A    between atoms: _872  and  _873
REMARK  357  A    between atoms: _872  and  _875
REMARK  358  A    between atoms: _875  and  _876
REMARK  359  A    between atoms: _878  and  _880
REMARK  360  A    between atoms: _880  and  _881
REMARK  361  A    between atoms: _880  and  _883
REMARK  362  A    between atoms: _883  and  _884
REMARK  363  A    between atoms: _889  and  _891
REMARK  364  A    between atoms: _891  and  _892
REMARK  365  A    between atoms: _891  and  _894
REMARK  366  A    between atoms: _894  and  _895
REMARK  367  A    between atoms: _900  and  _902
REMARK  368  A    between atoms: _902  and  _903
REMARK  369  A    between atoms: _902  and  _905
REMARK  370  A    between atoms: _905  and  _906
REMARK  371  A    between atoms: _906  and  _907
REMARK  372  A    between atoms: _907  and  _908
REMARK  373  A    between atoms: _908  and  _909
REMARK  374  A    between atoms: _913  and  _915
REMARK  375  A    between atoms: _915  and  _916
REMARK  376  A    between atoms: _915  and  _918
REMARK  377  A    between atoms: _918  and  _919
REMARK  378  A    between atoms: _924  and  _925
REMARK  379  A    between atoms: _927  and  _929
REMARK  380  A    between atoms: _929  and  _930
REMARK  381  A    between atoms: _933  and  _935
REMARK  382  A    between atoms: _935  and  _936
REMARK                            x       y       z     vdW  Elec       q    Type
REMARK                         _______ _______ _______ _____ _____    ______ ____
ROOT
ATOM      1  N   PRO A   1      34.382  61.341  52.065  0.00  0.00    -0.212 NA
ATOM      2  CD  PRO A   1      33.158  60.803  51.439  0.00  0.00    +0.089 C 
ATOM      3  CG  PRO A   1      32.985  61.644  50.230  0.00  0.00    +0.021 C 
ATOM      4  CB  PRO A   1      34.371  62.089  49.838  0.00  0.00    +0.027 C 
ATOM      5  CA  PRO A   1      35.134  62.209  51.161  0.00  0.00    +0.137 C 
ENDROOT
BRANCH   5   6
ATOM      6  C   PRO A   1      35.159  63.664  51.652  0.00  0.00    +0.224 C 
ATOM      7  O   PRO A   1      36.099  64.405  51.336  0.00  0.00    -0.287 OA
ENDBRANCH   5   6
TORSDOF 1
REMARK  Name = ../refined-set-2016/2xeg/2xeg_pocket.pdb
REMARK  382 active torsions:
REMARK  status: ('A' for Active; 'I' for Inactive)
REMARK    1  A    between atoms: _1  and  _3
REMARK    2  A    between atoms: _3  and  _4
REMARK    3  A    between atoms: _7  and  _9
REMARK    4  A    between atoms: _9  and  _10
REMARK    5  A    between atoms: _9  and  _12
REMARK    6  A    between atoms: _12  and  _13
REMARK    7  A    between atoms: _19  and  _21
REMARK    8  A    between atoms: _21  and  _22
REMARK    9  A    between atoms: _21  and  _24
REMARK   10  A    between atoms: _24  and  _25
REMARK   11  A    between atoms: _30  and  _31
REMARK   12  A    between atoms: _33  and  _35
REMARK   13  A    between atoms: _35  and  _36
REMARK   14  A    between atoms: _38  and  _40
REMARK   15  A    between atoms: _40  and  _41
REMARK   16  A    between atoms: _40  and  _43
REMARK   17  A    between atoms: _43  and  _44
REMARK   18  A    between atoms: _44  and  _45
REMARK   19  A    between atoms: _45  and  _46
REMARK   20  A    between atoms: _46  and  _47
REMARK   21  A    between atoms: _51  and  _53
REMARK   22  A    between atoms: _53  and  _54
REMARK   23  A    between atoms: _53  and  _56
REMARK   24  A    between atoms: _59  and  _61
REMARK   25  A    between atoms: _61  and  _62
REMARK   26  A    between atoms: _61  and  _64
REMARK   27  A    between atoms: _64  and  _65
REMARK   28  A    between atoms: _71  and  _73
REMARK   29  A    between atoms: _73  and  _74
REMARK   30  A    between atoms: _73  and  _76
REMARK   31  A    between atoms: _76  and  _77
REMARK   32  A    between atoms: _77  and  _78
REMARK   33  A    between atoms: _78  and  _79
REMARK   34  A    between atoms: _88  and  _90
REMARK   35  A    between atoms: _90  and  _91
REMARK   36  A    between atoms: _93  and  _95
REMARK   37  A    between atoms: _95  and  _96
REMARK   38  A    between atoms: _95  and  _98
REMARK   39  A    between atoms: _98  and  _99
REMARK   40  A    between atoms: _99  and  _100
REMARK   41  A    between atoms: _100  and  _101
REMARK   42  A    between atoms: _101  and  _102
REMARK   43  A    between atoms: _106  and  _108
REMARK   44  A    between atoms: _108  and  _109
REMARK   45  A    between atoms: _108  and  _111
REMARK   46  A    between atoms: _111  and  _112
REMARK   47  A    between atoms: _115  and  _117
REMARK   48  A    between atoms: _117  and  _118
REMARK   49  A    between atoms: _117  and  _120
REMARK   50  A    between atoms: _120  and  _121
REMARK   51  A    between atoms: _126  and  _127
REMARK   52  A    between atoms: _129  and  _131
REMARK   53  A    between atoms: _131  and  _132
REMARK   54  A    between atoms: _131  and  _134
REMARK   55  A    between atoms: _134  and  _135
REMARK   56  A    between atoms: _135  and  _136
REMARK   57  A    between atoms: _141  and  _143
REMARK   58  A    between atoms: _143  and  _144
REMARK   59  A    between atoms: _143  and  _146
REMARK   60  A    between atoms: _146  and  _147
REMARK   61  A    between atoms: _147  and  _148
REMARK   62  A    between atoms: _148  and  _149
REMARK   63  A    between atoms: _158  and  _160
REMARK   64  A    between atoms: _160  and  _161
REMARK   65  A    between atoms: _163  and  _165
REMARK   66  A    between atoms: _165  and  _166
REMARK   67  A    between atoms: _165  and  _168
REMARK   68  A    between atoms: _168  and  _169
REMARK   69  A    between atoms: _174  and  _176
REMARK   70  A    between atoms: _176  and  _177
REMARK   71  A    between atoms: _176  and  _179
REMARK   72  A    between atoms: _179  and  _180
REMARK   73  A    between atoms: _183  and  _185
REMARK   74  A    between atoms: _185  and  _186
REMARK   75  A    between atoms: _185  and  _188
REMARK   76  A    between atoms: _188  and  _189
REMARK   77  A    between atoms: _192  and  _194
REMARK   78  A    between atoms: _194  and  _195
REMARK   79  A    between atoms: _194  and  _197
REMARK   80  A    between atoms: _197  and  _198
REMARK   81  A    between atoms: _203  and  _205
REMARK   82  A    between atoms: _205  and  _206
REMARK   83  A    between atoms: _205  and  _208
REMARK   84  A    between atoms: _208  and  _209
REMARK   85  A    between atoms: _212  and  _214
REMARK   86  A    between atoms: _214  and  _215
REMARK   87  A    between atoms: _214  and  _217
REMARK   88  A    between atoms: _217  and  _218
REMARK   89  A    between atoms: _223  and  _225
REMARK   90  A    between atoms: _225  and  _226
REMARK   91  A    between atoms: _228  and  _230
REMARK   92  A    between atoms: _230  and  _231
REMARK   93  A    between atoms: _230  and  _233
REMARK   94  A    between atoms: _233  and  _234
REMARK   95  A    between atoms: _238  and  ZN_939
REMARK   96  A    between atoms: _239  and  _241
REMARK   97  A    between atoms: _241  and  _242
REMARK   98  A    between atoms: _241  and  _244
REMARK   99  A    between atoms: _244  and  _245
REMARK  100  A    between atoms: _248  and  _250
REMARK  101  A    between atoms: _250  and  _251
REMARK  102  A    between atoms: _250  and  _253
REMARK  103  A    between atoms: _253  and  _254
REMARK  104  A    between atoms: _264  and  _266
REMARK  105  A    between atoms: _266  and  _267
REMARK  106  A    between atoms: _266  and  _269
REMARK  107  A    between atoms: _269  and  _270
REMARK  108  A    between atoms: _273  and  _275
REMARK  109  A    between atoms: _275  and  _276
REMARK  110  A    between atoms: _275  and  _278
REMARK  111  A    between atoms: _278  and  _279
REMARK  112  A    between atoms: _279  and  _280
REMARK  113  A    between atoms: _279  and  _281
REMARK  114  A    between atoms: _280  and  ZN_939
REMARK  115  A    between atoms: _281  and  ZN_938
REMARK  116  A    between atoms: _283  and  _284
REMARK  117  A    between atoms: _289  and  _291
REMARK  118  A    between atoms: _291  and  _292
REMARK  119  A    between atoms: _295  and  _297
REMARK  120  A    between atoms: _297  and  _298
REMARK  121  A    between atoms: _297  and  _300
REMARK  122  A    between atoms: _300  and  _301
REMARK  123  A    between atoms: _301  and  _302
REMARK  124  A    between atoms: _305  and  _307
REMARK  125  A    between atoms: _307  and  _308
REMARK  126  A    between atoms: _307  and  _310
REMARK  127  A    between atoms: _310  and  _311
REMARK  128  A    between atoms: _311  and  _312
REMARK  129  A    between atoms: _312  and  _314
REMARK  130  A    between atoms: _314  and  ZN_938
REMARK  131  A    between atoms: _315  and  _317
REMARK  132  A    between atoms: _317  and  _318
REMARK  133  A    between atoms: _317  and  _320
REMARK  134  A    between atoms: _320  and  _321
REMARK  135  A    between atoms: _327  and  _329
REMARK  136  A    between atoms: _329  and  _330
REMARK  137  A    between atoms: _332  and  _334
REMARK  138  A    between atoms: _334  and  _335
REMARK  139  A    between atoms: _334  and  _337
REMARK  140  A    between atoms: _337  and  _338
REMARK  141  A    between atoms: _341  and  _343
REMARK  142  A    between atoms: _343  and  _344
REMARK  143  A    between atoms: _343  and  _346
REMARK  144  A    between atoms: _346  and  _347
REMARK  145  A    between atoms: _350  and  _352
REMARK  146  A    between atoms: _352  and  _353
REMARK  147  A    between atoms: _352  and  _355
REMARK  148  A    between atoms: _355  and  _356
REMARK  149  A    between atoms: _361  and  _363
REMARK  150  A    between atoms: _363  and  _364
REMARK  151  A    between atoms: _363  and  _366
REMARK  152  A    between atoms: _366  and  _367
REMARK  153  A    between atoms: _367  and  _369
REMARK  154  A    between atoms: _369  and  ZN_939
REMARK  155  A    between atoms: _370  and  _372
REMARK  156  A    between atoms: _372  and  _373
REMARK  157  A    between atoms: _372  and  _375
REMARK  158  A    between atoms: _375  and  _376
REMARK  159  A    between atoms: _378  and  _380
REMARK  160  A    between atoms: _380  and  _381
REMARK  161  A    between atoms: _380  and  _383
REMARK  162  A    between atoms: _383  and  _384
REMARK  163  A    between atoms: _386  and  _388
REMARK  164  A    between atoms: _388  and  _389
REMARK  165  A    between atoms: _388  and  _391
REMARK  166  A    between atoms: _391  and  _392
REMARK  167  A    between atoms: _395  and  _397
REMARK  168  A    between atoms: _397  and  _398
REMARK  169  A    between atoms: _397  and  _400
REMARK  170  A    between atoms: _400  and  _401
REMARK  171  A    between atoms: _401  and  _402
REMARK  172  A    between atoms: _405  and  _407
REMARK  173  A    between atoms: _407  and  _408
REMARK  174  A    between atoms: _407  and  _410
REMARK  175  A    between atoms: _410  and  _411
REMARK  176  A    between atoms: _416  and  _417
REMARK  177  A    between atoms: _419  and  _421
REMARK  178  A    between atoms: _421  and  _422
REMARK  179  A    between atoms: _421  and  _424
REMARK  180  A    between atoms: _424  and  _425
REMARK  181  A    between atoms: _428  and  _430
REMARK  182  A    between atoms: _430  and  _431
REMARK  183  A    between atoms: _430  and  _433
REMARK  184  A    between atoms: _433  and  _434
REMARK  185  A    between atoms: _437  and  _439
REMARK  186  A    between atoms: _439  and  _440
REMARK  187  A    between atoms: _439  and  _442
REMARK  188  A    between atoms: _442  and  _443
REMARK  189  A    between atoms: _443  and  _444
REMARK  190  A    between atoms: _444  and  _445
REMARK  191  A    between atoms: _454  and  _456
REMARK  192  A    between atoms: _456  and  _457
REMARK  193  A    between atoms: _456  and  _459
REMARK  194  A    between atoms: _462  and  _464
REMARK  195  A    between atoms: _464  and  _465
REMARK  196  A    between atoms: _464  and  _467
REMARK  197  A    between atoms: _467  and  _468
REMARK  198  A    between atoms: _471  and  _473
REMARK  199  A    between atoms: _473  and  _474
REMARK  200  A    between atoms: _473  and  _476
REMARK  201  A    between atoms: _476  and  _477
REMARK  202  A    between atoms: _487  and  _489
REMARK  203  A    between atoms: _489  and  _490
REMARK  204  A    between atoms: _489  and  _492
REMARK  205  A    between atoms: _492  and  _493
REMARK  206  A    between atoms: _493  and  _494
REMARK  207  A    between atoms: _494  and  _495
REMARK  208  A    between atoms: _495  and  _496
REMARK  209  A    between atoms: _500  and  _502
REMARK  210  A    between atoms: _502  and  _503
REMARK  211  A    between atoms: _502  and  _505
REMARK  212  A    between atoms: _505  and  _506
REMARK  213  A    between atoms: _509  and  _510
REMARK  214  A    between atoms: _516  and  _517
REMARK  215  A    between atoms: _522  and  _524
REMARK  216  A    between atoms: _524  and  _525
REMARK  217  A    between atoms: _524  and  _527
REMARK  218  A    between atoms: _527  and  _528
REMARK  219  A    between atoms: _528  and  _529
REMARK  220  A    between atoms: _529  and  _530
REMARK  221  A    between atoms: _539  and  _541
REMARK  222  A    between atoms: _541  and  _542
REMARK  223  A    between atoms: _541  and  _544
REMARK  224  A    between atoms: _544  and  _545
REMARK  225  A    between atoms: _548  and  _550
REMARK  226  A    between atoms: _550  and  _551
REMARK  227  A    between atoms: _550  and  _553
REMARK  228  A    between atoms: _553  and  _554
REMARK  229  A    between atoms: _556  and  _558
REMARK  230  A    between atoms: _558  and  _559
REMARK  231  A    between atoms: _558  and  _561
REMARK  232  A    between atoms: _561  and  _562
REMARK  233  A    between atoms: _562  and  _563
REMARK  234  A    between atoms: _563  and  _564
REMARK  235  A    between atoms: _564  and  _565
REMARK  236  A    between atoms: _569  and  _571
REMARK  237  A    between atoms: _571  and  _572
REMARK  238  A    between atoms: _571  and  _574
REMARK  239  A    between atoms: _574  and  _575
REMARK  240  A    between atoms: _578  and  _580
REMARK  241  A    between atoms: _580  and  _581
REMARK  242  A    between atoms: _583  and  _585
REMARK  243  A    between atoms: _585  and  _586
REMARK  244  A    between atoms: _585  and  _588
REMARK  245  A    between atoms: _588  and  _589
REMARK  246  A    between atoms: _591  and  _593
REMARK  247  A    between atoms: _593  and  _594
REMARK  248  A    between atoms: _596  and  _598
REMARK  249  A    between atoms: _598  and  _599
REMARK  250  A    between atoms: _598  and  _601
REMARK  251  A    between atoms: _601  and  _602
REMARK  252  A    between atoms: _607  and  _609
REMARK  253  A    between atoms: _609  and  _610
REMARK  254  A    between atoms: _609  and  _612
REMARK  255  A    between atoms: _612  and  _613
REMARK  256  A    between atoms: _616  and  _618
REMARK  257  A    between atoms: _618  and  _619
REMARK  258  A    between atoms: _618  and  _621
REMARK  259  A    between atoms: _621  and  _622
REMARK  260  A    between atoms: _628  and  _630
REMARK  261  A    between atoms: _630  and  _631
REMARK  262  A    between atoms: _630  and  _633
REMARK  263  A    between atoms: _633  and  _634
REMARK  264  A    between atoms: _634  and  _635
REMARK  265  A    between atoms: _638  and  _640
REMARK  266  A    between atoms: _640  and  _641
REMARK  267  A    between atoms: _640  and  _643
REMARK  268  A    between atoms: _643  and  _644
REMARK  269  A    between atoms: _644  and  _645
REMARK  270  A    between atoms: _645  and  _646
REMARK  271  A    between atoms: _655  and  _657
REMARK  272  A    between atoms: _657  and  _658
REMARK  273  A    between atoms: _657  and  _660
REMARK  274  A    between atoms: _660  and  _661
REMARK  275  A    between atoms: _661  and  _662
REMARK  276  A    between atoms: _662  and  _663
REMARK  277  A    between atoms: _672  and  _674
REMARK  278  A    between atoms: _674  and  _675
REMARK  279  A    between atoms: _674  and  _677
REMARK  280  A    between atoms: _677  and  _678
REMARK  281  A    between atoms: _683  and  _684
REMARK  282  A    between atoms: _686  and  _688
REMARK  283  A    between atoms: _688  and  _689
REMARK  284  A    between atoms: _688  and  _691
REMARK  285  A    between atoms: _691  and  _692
REMARK  286  A    between atoms: _695  and  _697
REMARK  287  A    between atoms: _697  and  _698
REMARK  288  A    between atoms: _697  and  _700
REMARK  289  A    between atoms: _700  and  _701
REMARK  290  A    between atoms: _701  and  _702
REMARK  291  A    between atoms: _702  and  _703
REMARK  292  A    between atoms: _703  and  _704
REMARK  293  A    between atoms: _708  and  _710
REMARK  294  A    between atoms: _710  and  _711
REMARK  295  A    between atoms: _710  and  _713
REMARK  296  A    between atoms: _713  and  _714
REMARK  297  A    between atoms: _719  and  _721
REMARK  298  A    between atoms: _721  and  _722
REMARK  299  A    between atoms: _721  and  _724
REMARK  300  A    between atoms: _724  and  _725
REMARK  301  A    between atoms: _735  and  _737
REMARK  302  A    between atoms: _737  and  _738
REMARK  303  A    between atoms: _737  and  _740
REMARK  304  A    between atoms: _740  and  _741
REMARK  305  A    between atoms: _741  and  _742
REMARK  306  A    between atoms: _745  and  _747
REMARK  307  A    between atoms: _747  and  _748
REMARK  308  A    between atoms: _747  and  _750
REMARK  309  A    between atoms: _750  and  _751
REMARK  310  A    between atoms: _754  and  _756
REMARK  311  A    between atoms: _756  and  _757
REMARK  312  A    between atoms: _756  and  _759
REMARK  313  A    between atoms: _759  and  _760
REMARK  314  A    between atoms: _765  and  _767
REMARK  315  A    between atoms: _767  and  _768
REMARK  316  A    between atoms: _767  and  _770
REMARK  317  A    between atoms: _770  and  _771
REMARK  318  A    between atoms: _777  and  _779
REMARK  319  A    between atoms: _779  and  _780
REMARK  320  A    between atoms: _779  and  _782
REMARK  321  A    between atoms: _782  and  _783
REMARK  322  A    between atoms: _785  and  _787
REMARK  323  A    between atoms: _787  and  _788
REMARK  324  A    between atoms: _790  and  _792
REMARK  325  A    between atoms: _792  and  _793
REMARK  326  A    between atoms: _792  and  _795
REMARK  327  A    between atoms: _795  and  _796
REMARK  328  A    between atoms: _801  and  _802
REMARK  329  A    between atoms: _804  and  _806
REMARK  330  A    between atoms: _806  and  _807
REMARK  331  A    between atoms: _806  and  _809
REMARK  332  A    between atoms: _809  and  _810
REMARK  333  A    between atoms: _815  and  _816
REMARK  334  A    between atoms: _818  and  _820
REMARK  335  A    between atoms: _820  and  _821
REMARK  336  A    between atoms: _820  and  _823
REMARK  337  A    between atoms: _823  and  _824
REMARK  338  A    between atoms: _828  and  ZN_938
REMARK  339  A    between atoms: _829  and  _831
REMARK  340  A    between atoms: _831  and  _832
REMARK  341  A    between atoms: _831  and  _834
REMARK  342  A    between atoms: _834  and  _835
REMARK  343  A    between atoms: _835  and  _836
REMARK  344  A    between atoms: _839  and  _841
REMARK  345  A    between atoms: _841  and  _842
REMARK  346  A    between atoms: _841  and  _844
REMARK  347  A    between atoms: _844  and  _845
REMARK  348  A    between atoms: _845  and  _846
REMARK  349  A    between atoms: _846  and  _847
REMARK  350  A    between atoms: _856  and  _858
REMARK  351  A    between atoms: _858  and  _859
REMARK  352  A    between atoms: _858  and  _861
REMARK  353  A    between atoms: _861  and  _862
REMARK  354  A    between atoms: _867  and  _868
REMARK  355  A    between atoms: _870  and  _872
REMARK  356  A    between atoms: _872  and  _873
REMARK  357  A    between atoms: _872  and  _875
REMARK  358  A    between atoms: _875  and  _876
REMARK  359  A    between atoms: _878  and  _880
REMARK  360  A    between atoms: _880  and  _881
REMARK  361  A    between atoms: _880  and  _883
REMARK  362  A    between atoms: _883  and  _884
REMARK  363  A    between atoms: _889  and  _891
REMARK  364  A    between atoms: _891  and  _892
REMARK  365  A    between atoms: _891  and  _894
REMARK  366  A    between atoms: _894  and  _895
REMARK  367  A    between atoms: _900  and  _902
REMARK  368  A    between atoms: _902  and  _903
REMARK  369  A    between atoms: _902  and  _905
REMARK  370  A    between atoms: _905  and  _906
REMARK  371  A    between atoms: _906  and  _907
REMARK  372  A    between atoms: _907  and  _908
REMARK  373  A    between atoms: _908  and  _909
REMARK  374  A    between atoms: _913  and  _915
REMARK  375  A    between atoms: _915  and  _916
REMARK  376  A    between atoms: _915  and  _918
REMARK  377  A    between atoms: _918  and  _919
REMARK  378  A    between atoms: _924  and  _925
REMARK  379  A    between atoms: _927  and  _929
REMARK  380  A    between atoms: _929  and  _930
REMARK  381  A    between atoms: _933  and  _935
REMARK  382  A    between atoms: _935  and  _936
REMARK                            x       y       z     vdW  Elec       q    Type
REMARK                         _______ _______ _______ _____ _____    ______ ____
ROOT
ATOM      1  C   LEU A   5      19.601  56.758  47.000  0.00  0.00    +0.241 C 
ATOM      2  O   LEU A   5      19.357  57.868  46.474  0.00  0.00    -0.273 OA
ATOM      3  N   GLY A   6      19.757  55.620  46.302  0.00  0.00    -0.295 N 
ATOM      4  H   GLY A   6      20.115  54.774  46.791  0.00  0.00    +0.150 HD
ENDROOT
BRANCH   3   5
ATOM      5  CA  GLY A   6      19.444  55.535  44.897  0.00  0.00    +0.176 C 
BRANCH   5   6
ATOM      6  C   GLY A   6      18.082  54.888  44.747  0.00  0.00    +0.243 C 
ATOM      7  O   GLY A   6      17.151  55.269  45.410  0.00  0.00    -0.273 OA
ATOM      8  N   SER A   7      17.981  53.860  43.898  0.00  0.00    -0.295 N 
ATOM      9  H   SER A   7      18.780  53.620  43.278  0.00  0.00    +0.150 HD
BRANCH   8  10
ATOM     10  CA  SER A   7      16.764  53.080  43.839  0.00  0.00    +0.178 C 
BRANCH  10  11
ATOM     11  C   SER A   7      17.068  51.640  43.435  0.00  0.00    +0.243 C 
ATOM     12  O   SER A   7      18.223  51.159  43.641  0.00  0.00    -0.273 OA
ATOM     13  N   GLY A   8      16.054  50.953  42.901  0.00  0.00    -0.295 N 
ATOM     14  H   GLY A   8      15.166  51.443  42.670  0.00  0.00    +0.150 HD
BRANCH  13  15
ATOM     15  CA  GLY A   8      16.177  49.528  42.639  0.00  0.00    +0.176 C 
BRANCH  15  16
ATOM     16  C   GLY A   8      15.996  48.695  43.914  0.00  0.00    +0.243 C 
ATOM     17  N   ASN A   9      15.260  49.231  44.899  0.00  0.00    -0.297 N 
ATOM     18  H   ASN A   9      14.971  50.228  44.845  0.00  0.00    +0.150 HD
ATOM     19  O   GLY A   8      16.490  47.564  44.002  0.00  0.00    -0.273 OA
BRANCH  17  20
ATOM     20  CA  ASN A   9      14.860  48.412  46.057  0.00  0.00    +0.158 C 
BRANCH  20  21
ATOM     21  C   ASN A   9      13.619  48.988  46.690  0.00  0.00    +0.241 C 
ATOM     22  N   ASP A  10      13.104  48.318  47.723  0.00  0.00    -0.297 N 
ATOM     23  H   ASP A  10      13.699  47.635  48.234  0.00  0.00    +0.150 HD
ATOM     24  O   ASN A   9      13.152  50.080  46.291  0.00  0.00    -0.273 OA
BRANCH  22  25
ATOM     25  CA  ASP A  10      11.700  48.527  48.158  0.00  0.00    +0.160 C 
BRANCH  25  26
ATOM     26  C   ASP A  10      11.472  49.823  48.928  0.00  0.00    +0.241 C 
ATOM     27  N   PHE A  11      12.536  50.549  49.240  0.00  0.00    -0.297 N 
ATOM     28  H   PHE A  11      13.496  50.195  49.055  0.00  0.00    +0.150 HD
ATOM     29  O   ASP A  10      10.312  50.214  49.169  0.00  0.00    -0.273 OA
BRANCH  27  30
ATOM     30  CA  PHE A  11      12.324  51.872  49.856  0.00  0.00    +0.153 C 
BRANCH  30  31
ATOM     31  C   PHE A  11      11.834  52.936  48.893  0.00  0.00    +0.241 C 
ATOM     32  O   PHE A  11      11.452  54.022  49.324  0.00  0.00    -0.273 OA
ATOM     33  N   GLU A  12      11.862  52.654  47.579  0.00  0.00    -0.298 N 
ATOM     34  H   GLU A  12      12.083  51.686  47.268  0.00  0.00    +0.150 HD
BRANCH  33  35
ATOM     35  CA  GLU A  12      11.582  53.704  46.560  0.00  0.00    +0.137 C 
BRANCH  35  36
ATOM     36  C   GLU A  12      10.222  54.350  46.796  0.00  0.00    +0.227 C 
ATOM     37  O   GLU A  12      10.116  55.589  46.747  0.00  0.00    -0.286 OA
ENDBRANCH  35  36
BRANCH  35  38
ATOM     38  CB  GLU A  12      11.633  53.112  45.146  0.00  0.00    +0.039 C 
BRANCH  38  39
ATOM     39  CG  GLU A  12      11.603  54.224  44.051  0.00  0.00    +0.116 C 
BRANCH  39  40
ATOM     40  CD  GLU A  12      11.473  53.610  42.645  0.00  0.00    +0.365 C 
ATOM     41  OE2 GLU A  12      10.417  52.954  42.420  0.00  0.00    -0.246 OA
ATOM     42  OE1 GLU A  12      12.408  53.835  41.799  0.00  0.00    -0.246 OA
ENDBRANCH  39  40
ENDBRANCH  38  39
ENDBRANCH  35  38
ENDBRANCH  33  35
ENDBRANCH  30  31
BRANCH  30  43
ATOM     43  CB  PHE A  11      13.636  52.388  50.510  0.00  0.00    +0.055 C 
BRANCH  43  44
ATOM     44  CG  PHE A  11      14.786  52.469  49.528  0.00  0.00    -0.020 A 
ATOM     45  CD2 PHE A  11      15.736  51.424  49.448  0.00  0.00    -0.004 A 
ATOM     46  CE2 PHE A  11      16.808  51.482  48.545  0.00  0.00    -0.000 A 
ATOM     47  CZ  PHE A  11      16.919  52.550  47.661  0.00  0.00    -0.000 A 
ATOM     48  CE1 PHE A  11      16.001  53.596  47.720  0.00  0.00    -0.000 A 
ATOM     49  CD1 PHE A  11      14.915  53.588  48.656  0.00  0.00    -0.004 A 
ENDBRANCH  43  44
ENDBRANCH  30  43
ENDBRANCH  27  30
ENDBRANCH  25  26
BRANCH  25  50
ATOM     50  CB  ASP A  10      11.231  47.358  49.026  0.00  0.00    +0.143 C 
BRANCH  50  51
ATOM     51  CG  ASP A  10      10.852  46.135  48.199  0.00  0.00    +0.367 C 
ATOM     52  OD2 ASP A  10      11.284  45.009  48.563  0.00  0.00    -0.246 OA
ATOM     53  OD1 ASP A  10      10.168  46.337  47.181  0.00  0.00    -0.246 OA
ENDBRANCH  50  51
ENDBRANCH  25  50
ENDBRANCH  22  25
ENDBRANCH  20  21
BRANCH  20  54
ATOM     54  CB  ASN A   9      16.019  48.197  47.056  0.00  0.00    +0.114 C 
BRANCH  54  55
ATOM     55  CG  ASN A   9      16.031  46.772  47.550  0.00  0.00    +0.222 C 
ATOM     56  OD1 ASN A   9      15.080  46.325  48.188  0.00  0.00    -0.275 OA
ATOM     57  ND2 ASN A   9      17.066  46.003  47.143  0.00  0.00    -0.329 N 
ATOM     58 HD21 ASN A   9      17.079  44.988  47.368  0.00  0.00    +0.145 HD
ATOM     59 HD22 ASN A   9      17.849  46.427  46.605  0.00  0.00    +0.145 HD
ENDBRANCH  54  55
ENDBRANCH  20  54
ENDBRANCH  17  20
ENDBRANCH  15  16
ENDBRANCH  13  15
ENDBRANCH  10  11
BRANCH  10  60
ATOM     60  CB  SER A   7      15.715  53.734  42.933  0.00  0.00    +0.166 C 
BRANCH  60  61
ATOM     61  OG  SER A   7      14.462  53.090  43.115  0.00  0.00    -0.380 OA
ATOM     62  H   SER A   7      13.786  53.514  42.529  0.00  0.00    +0.211 HD
ENDBRANCH  60  61
ENDBRANCH  10  60
ENDBRANCH   8  10
ENDBRANCH   5   6
ENDBRANCH   3   5
BRANCH   1  63
ATOM     63  CA  LEU A   5      19.742  56.625  48.501  0.00  0.00    +0.149 C 
BRANCH  63  65
ATOM     64  C   LYS A   4      21.792  57.825  48.843  0.00  0.00    +0.241 C 
ATOM     65  N   LEU A   5      20.477  57.768  48.991  0.00  0.00    -0.297 N 
ATOM     66  H   LEU A   5      19.973  58.547  49.461  0.00  0.00    +0.150 HD
ATOM     67  O   LYS A   4      22.428  56.878  48.382  0.00  0.00    -0.273 OA
BRANCH  64  68
ATOM     68  CA  LYS A   4      22.474  59.144  49.172  0.00  0.00    +0.149 C 
BRANCH  68  71
ATOM     69  C   SER A   3      24.255  58.123  50.521  0.00  0.00    +0.243 C 
ATOM     70  O   SER A   3      23.493  57.732  51.402  0.00  0.00    -0.273 OA
ATOM     71  N   LYS A   4      23.878  58.841  49.476  0.00  0.00    -0.297 N 
ATOM     72  H   LYS A   4      24.612  59.209  48.838  0.00  0.00    +0.150 HD
BRANCH  69  73
ATOM     73  CA  SER A   3      25.744  57.742  50.513  0.00  0.00    +0.178 C 
BRANCH  73  76
ATOM     74  C   ILE A   2      26.741  58.181  52.701  0.00  0.00    +0.241 C 
ATOM     75  O   ILE A   2      26.909  59.402  52.488  0.00  0.00    -0.273 OA
ATOM     76  N   SER A   3      26.160  57.338  51.846  0.00  0.00    -0.295 N 
ATOM     77  H   SER A   3      25.999  56.355  52.144  0.00  0.00    +0.150 HD
BRANCH  74  78
ATOM     78  CA  ILE A   2      27.272  57.578  53.989  0.00  0.00    +0.148 C 
BRANCH  78  81
ATOM     79  C   ARG A   1      29.640  57.145  54.300  0.00  0.00    +0.238 C 
ATOM     80  O   ARG A   1      29.416  55.974  54.653  0.00  0.00    -0.274 OA
ATOM     81  N   ILE A   2      28.675  58.035  54.081  0.00  0.00    -0.297 N 
ATOM     82  H   ILE A   2      28.906  59.044  53.975  0.00  0.00    +0.150 HD
BRANCH  79  83
ATOM     83  CA  ARG A   1      31.057  57.622  54.085  0.00  0.00    +0.145 C 
BRANCH  83  84
ATOM     84  N   ARG A   1      31.869  57.278  55.256  0.00  0.00    -0.238 NA
ATOM     85  H   ARG A   1      32.555  56.499  55.192  0.00  0.00    +0.142 HD
ENDBRANCH  83  84
BRANCH  83  86
ATOM     86  CB  ARG A   1      31.630  56.881  52.867  0.00  0.00    +0.030 C 
BRANCH  86  87
ATOM     87  CG  ARG A   1      30.884  57.128  51.571  0.00  0.00    +0.045 C 
BRANCH  87  88
ATOM     88  CD  ARG A   1      31.435  56.254  50.475  0.00  0.00    +0.174 C 
BRANCH  88  89
ATOM     89  NE  ARG A   1      32.779  56.686  50.081  0.00  0.00    -0.265 N 
ATOM     90  HE  ARG A   1      33.592  56.252  50.563  0.00  0.00    +0.259 HD
ATOM     91  CZ  ARG A   1      33.023  57.600  49.143  0.00  0.00    +0.342 C 
ATOM     92  NH2 ARG A   1      34.283  57.922  48.848  0.00  0.00    -0.292 N 
ATOM     93 HH21 ARG A   1      35.069  57.460  49.349  0.00  0.00    +0.255 HD
ATOM     94 HH22 ARG A   1      34.480  58.635  48.117  0.00  0.00    +0.255 HD
ATOM     95  NH1 ARG A   1      32.015  58.203  48.502  0.00  0.00    -0.292 N 
ATOM     96 HH11 ARG A   1      31.031  57.959  48.735  0.00  0.00    +0.255 HD
ATOM     97 HH12 ARG A   1      32.216  58.915  47.771  0.00  0.00    +0.255 HD
ENDBRANCH  88  89
ENDBRANCH  87  88
ENDBRANCH  86  87
ENDBRANCH  83  86
ENDBRANCH  79  83
ENDBRANCH  78  81
BRANCH  78  98
ATOM     98  CB  ILE A   2      26.424  58.123  55.156  0.00  0.00    +0.027 C 
ATOM     99  CG2 ILE A   2      24.904  57.756  54.968  0.00  0.00    +0.002 C 
BRANCH  98 100
ATOM    100  CG1 ILE A   2      26.928  57.609  56.518  0.00  0.00    +0.002 C 
ATOM    101  CD1 ILE A   2      26.114  58.135  57.723  0.00  0.00    +0.000 C 
ENDBRANCH  98 100
ENDBRANCH  78  98
ENDBRANCH  74  78
ENDBRANCH  73  76
BRANCH  73 102
ATOM    102  CB  SER A   3      25.939  56.588  49.521  0.00  0.00    +0.166 C 
BRANCH 102 103
ATOM    103  OG  SER A   3      27.343  56.255  49.451  0.00  0.00    -0.380 OA
ATOM    104  H   SER A   3      27.854  57.046  49.146  0.00  0.00    +0.211 HD
ENDBRANCH 102 103
ENDBRANCH  73 102
ENDBRANCH  69  73
ENDBRANCH  68  71
BRANCH  68 105
ATOM    105  CB  LYS A   4      22.374  60.062  47.935  0.00  0.00    +0.029 C 
BRANCH 105 106
ATOM    106  CG  LYS A   4      23.288  61.273  47.950  0.00  0.00    +0.000 C 
BRANCH 106 107
ATOM    107  CD  LYS A   4      23.022  62.220  46.750  0.00  0.00    -0.024 C 
BRANCH 107 108
ATOM    108  CE  LYS A   4      23.516  61.661  45.431  0.00  0.00    -0.086 C 
BRANCH 108 109
ATOM    109  NZ  LYS A   4      24.969  61.950  45.284  0.00  0.00    +0.380 N 
ATOM    110  HZ1 LYS A   4      25.490  61.506  46.067  0.00  0.00    -0.089 HD
ATOM    111  HZ2 LYS A   4      25.120  62.979  45.304  0.00  0.00    -0.089 HD
ATOM    112  HZ3 LYS A   4      25.308  61.566  44.379  0.00  0.00    -0.089 HD
ENDBRANCH 108 109
ENDBRANCH 107 108
ENDBRANCH 106 107
ENDBRANCH 105 106
ENDBRANCH  68 105
ENDBRANCH  64  68
ENDBRANCH  63  65
BRANCH  63 113
ATOM    113  CB  LEU A   5      18.327  56.605  49.077  0.00  0.00    +0.029 C 
BRANCH 113 114
ATOM    114  CG  LEU A   5      18.237  56.149  50.546  0.00  0.00    +0.002 C 
ATOM    115  CD2 LEU A   5      16.893  56.536  51.186  0.00  0.00    +0.000 C 
ATOM    116  CD1 LEU A   5      18.465  54.653  50.654  0.00  0.00    +0.000 C 
ENDBRANCH 113 114
ENDBRANCH  63 113
ENDBRANCH   1  63
TORSDOF 50
REMARK  Name = ../refined-set-2016/2xeg/2xeg_pocket.pdb
REMARK  382 active torsions:
REMARK  status: ('A' for Active; 'I' for Inactive)
REMARK    1  A    between atoms: _1  and  _3
REMARK    2  A    between atoms: _3  and  _4
REMARK    3  A    between atoms: _7  and  _9
REMARK    4  A    between atoms: _9  and  _10
REMARK    5  A    between atoms: _9  and  _12
REMARK    6  A    between atoms: _12  and  _13
REMARK    7  A    between atoms: _19  and  _21
REMARK    8  A    between atoms: _21  and  _22
REMARK    9  A    between atoms: _21  and  _24
REMARK   10  A    between atoms: _24  and  _25
REMARK   11  A    between atoms: _30  and  _31
REMARK   12  A    between atoms: _33  and  _35
REMARK   13  A    between atoms: _35  and  _36
REMARK   14  A    between atoms: _38  and  _40
REMARK   15  A    between atoms: _40  and  _41
REMARK   16  A    between atoms: _40  and  _43
REMARK   17  A    between atoms: _43  and  _44
REMARK   18  A    between atoms: _44  and  _45
REMARK   19  A    between atoms: _45  and  _46
REMARK   20  A    between atoms: _46  and  _47
REMARK   21  A    between atoms: _51  and  _53
REMARK   22  A    between atoms: _53  and  _54
REMARK   23  A    between atoms: _53  and  _56
REMARK   24  A    between atoms: _59  and  _61
REMARK   25  A    between atoms: _61  and  _62
REMARK   26  A    between atoms: _61  and  _64
REMARK   27  A    between atoms: _64  and  _65
REMARK   28  A    between atoms: _71  and  _73
REMARK   29  A    between atoms: _73  and  _74
REMARK   30  A    between atoms: _73  and  _76
REMARK   31  A    between atoms: _76  and  _77
REMARK   32  A    between atoms: _77  and  _78
REMARK   33  A    between atoms: _78  and  _79
REMARK   34  A    between atoms: _88  and  _90
REMARK   35  A    between atoms: _90  and  _91
REMARK   36  A    between atoms: _93  and  _95
REMARK   37  A    between atoms: _95  and  _96
REMARK   38  A    between atoms: _95  and  _98
REMARK   39  A    between atoms: _98  and  _99
REMARK   40  A    between atoms: _99  and  _100
REMARK   41  A    between atoms: _100  and  _101
REMARK   42  A    between atoms: _101  and  _102
REMARK   43  A    between atoms: _106  and  _108
REMARK   44  A    between atoms: _108  and  _109
REMARK   45  A    between atoms: _108  and  _111
REMARK   46  A    between atoms: _111  and  _112
REMARK   47  A    between atoms: _115  and  _117
REMARK   48  A    between atoms: _117  and  _118
REMARK   49  A    between atoms: _117  and  _120
REMARK   50  A    between atoms: _120  and  _121
REMARK   51  A    between atoms: _126  and  _127
REMARK   52  A    between atoms: _129  and  _131
REMARK   53  A    between atoms: _131  and  _132
REMARK   54  A    between atoms: _131  and  _134
REMARK   55  A    between atoms: _134  and  _135
REMARK   56  A    between atoms: _135  and  _136
REMARK   57  A    between atoms: _141  and  _143
REMARK   58  A    between atoms: _143  and  _144
REMARK   59  A    between atoms: _143  and  _146
REMARK   60  A    between atoms: _146  and  _147
REMARK   61  A    between atoms: _147  and  _148
REMARK   62  A    between atoms: _148  and  _149
REMARK   63  A    between atoms: _158  and  _160
REMARK   64  A    between atoms: _160  and  _161
REMARK   65  A    between atoms: _163  and  _165
REMARK   66  A    between atoms: _165  and  _166
REMARK   67  A    between atoms: _165  and  _168
REMARK   68  A    between atoms: _168  and  _169
REMARK   69  A    between atoms: _174  and  _176
REMARK   70  A    between atoms: _176  and  _177
REMARK   71  A    between atoms: _176  and  _179
REMARK   72  A    between atoms: _179  and  _180
REMARK   73  A    between atoms: _183  and  _185
REMARK   74  A    between atoms: _185  and  _186
REMARK   75  A    between atoms: _185  and  _188
REMARK   76  A    between atoms: _188  and  _189
REMARK   77  A    between atoms: _192  and  _194
REMARK   78  A    between atoms: _194  and  _195
REMARK   79  A    between atoms: _194  and  _197
REMARK   80  A    between atoms: _197  and  _198
REMARK   81  A    between atoms: _203  and  _205
REMARK   82  A    between atoms: _205  and  _206
REMARK   83  A    between atoms: _205  and  _208
REMARK   84  A    between atoms: _208  and  _209
REMARK   85  A    between atoms: _212  and  _214
REMARK   86  A    between atoms: _214  and  _215
REMARK   87  A    between atoms: _214  and  _217
REMARK   88  A    between atoms: _217  and  _218
REMARK   89  A    between atoms: _223  and  _225
REMARK   90  A    between atoms: _225  and  _226
REMARK   91  A    between atoms: _228  and  _230
REMARK   92  A    between atoms: _230  and  _231
REMARK   93  A    between atoms: _230  and  _233
REMARK   94  A    between atoms: _233  and  _234
REMARK   95  A    between atoms: _238  and  ZN_939
REMARK   96  A    between atoms: _239  and  _241
REMARK   97  A    between atoms: _241  and  _242
REMARK   98  A    between atoms: _241  and  _244
REMARK   99  A    between atoms: _244  and  _245
REMARK  100  A    between atoms: _248  and  _250
REMARK  101  A    between atoms: _250  and  _251
REMARK  102  A    between atoms: _250  and  _253
REMARK  103  A    between atoms: _253  and  _254
REMARK  104  A    between atoms: _264  and  _266
REMARK  105  A    between atoms: _266  and  _267
REMARK  106  A    between atoms: _266  and  _269
REMARK  107  A    between atoms: _269  and  _270
REMARK  108  A    between atoms: _273  and  _275
REMARK  109  A    between atoms: _275  and  _276
REMARK  110  A    between atoms: _275  and  _278
REMARK  111  A    between atoms: _278  and  _279
REMARK  112  A    between atoms: _279  and  _280
REMARK  113  A    between atoms: _279  and  _281
REMARK  114  A    between atoms: _280  and  ZN_939
REMARK  115  A    between atoms: _281  and  ZN_938
REMARK  116  A    between atoms: _283  and  _284
REMARK  117  A    between atoms: _289  and  _291
REMARK  118  A    between atoms: _291  and  _292
REMARK  119  A    between atoms: _295  and  _297
REMARK  120  A    between atoms: _297  and  _298
REMARK  121  A    between atoms: _297  and  _300
REMARK  122  A    between atoms: _300  and  _301
REMARK  123  A    between atoms: _301  and  _302
REMARK  124  A    between atoms: _305  and  _307
REMARK  125  A    between atoms: _307  and  _308
REMARK  126  A    between atoms: _307  and  _310
REMARK  127  A    between atoms: _310  and  _311
REMARK  128  A    between atoms: _311  and  _312
REMARK  129  A    between atoms: _312  and  _314
REMARK  130  A    between atoms: _314  and  ZN_938
REMARK  131  A    between atoms: _315  and  _317
REMARK  132  A    between atoms: _317  and  _318
REMARK  133  A    between atoms: _317  and  _320
REMARK  134  A    between atoms: _320  and  _321
REMARK  135  A    between atoms: _327  and  _329
REMARK  136  A    between atoms: _329  and  _330
REMARK  137  A    between atoms: _332  and  _334
REMARK  138  A    between atoms: _334  and  _335
REMARK  139  A    between atoms: _334  and  _337
REMARK  140  A    between atoms: _337  and  _338
REMARK  141  A    between atoms: _341  and  _343
REMARK  142  A    between atoms: _343  and  _344
REMARK  143  A    between atoms: _343  and  _346
REMARK  144  A    between atoms: _346  and  _347
REMARK  145  A    between atoms: _350  and  _352
REMARK  146  A    between atoms: _352  and  _353
REMARK  147  A    between atoms: _352  and  _355
REMARK  148  A    between atoms: _355  and  _356
REMARK  149  A    between atoms: _361  and  _363
REMARK  150  A    between atoms: _363  and  _364
REMARK  151  A    between atoms: _363  and  _366
REMARK  152  A    between atoms: _366  and  _367
REMARK  153  A    between atoms: _367  and  _369
REMARK  154  A    between atoms: _369  and  ZN_939
REMARK  155  A    between atoms: _370  and  _372
REMARK  156  A    between atoms: _372  and  _373
REMARK  157  A    between atoms: _372  and  _375
REMARK  158  A    between atoms: _375  and  _376
REMARK  159  A    between atoms: _378  and  _380
REMARK  160  A    between atoms: _380  and  _381
REMARK  161  A    between atoms: _380  and  _383
REMARK  162  A    between atoms: _383  and  _384
REMARK  163  A    between atoms: _386  and  _388
REMARK  164  A    between atoms: _388  and  _389
REMARK  165  A    between atoms: _388  and  _391
REMARK  166  A    between atoms: _391  and  _392
REMARK  167  A    between atoms: _395  and  _397
REMARK  168  A    between atoms: _397  and  _398
REMARK  169  A    between atoms: _397  and  _400
REMARK  170  A    between atoms: _400  and  _401
REMARK  171  A    between atoms: _401  and  _402
REMARK  172  A    between atoms: _405  and  _407
REMARK  173  A    between atoms: _407  and  _408
REMARK  174  A    between atoms: _407  and  _410
REMARK  175  A    between atoms: _410  and  _411
REMARK  176  A    between atoms: _416  and  _417
REMARK  177  A    between atoms: _419  and  _421
REMARK  178  A    between atoms: _421  and  _422
REMARK  179  A    between atoms: _421  and  _424
REMARK  180  A    between atoms: _424  and  _425
REMARK  181  A    between atoms: _428  and  _430
REMARK  182  A    between atoms: _430  and  _431
REMARK  183  A    between atoms: _430  and  _433
REMARK  184  A    between atoms: _433  and  _434
REMARK  185  A    between atoms: _437  and  _439
REMARK  186  A    between atoms: _439  and  _440
REMARK  187  A    between atoms: _439  and  _442
REMARK  188  A    between atoms: _442  and  _443
REMARK  189  A    between atoms: _443  and  _444
REMARK  190  A    between atoms: _444  and  _445
REMARK  191  A    between atoms: _454  and  _456
REMARK  192  A    between atoms: _456  and  _457
REMARK  193  A    between atoms: _456  and  _459
REMARK  194  A    between atoms: _462  and  _464
REMARK  195  A    between atoms: _464  and  _465
REMARK  196  A    between atoms: _464  and  _467
REMARK  197  A    between atoms: _467  and  _468
REMARK  198  A    between atoms: _471  and  _473
REMARK  199  A    between atoms: _473  and  _474
REMARK  200  A    between atoms: _473  and  _476
REMARK  201  A    between atoms: _476  and  _477
REMARK  202  A    between atoms: _487  and  _489
REMARK  203  A    between atoms: _489  and  _490
REMARK  204  A    between atoms: _489  and  _492
REMARK  205  A    between atoms: _492  and  _493
REMARK  206  A    between atoms: _493  and  _494
REMARK  207  A    between atoms: _494  and  _495
REMARK  208  A    between atoms: _495  and  _496
REMARK  209  A    between atoms: _500  and  _502
REMARK  210  A    between atoms: _502  and  _503
REMARK  211  A    between atoms: _502  and  _505
REMARK  212  A    between atoms: _505  and  _506
REMARK  213  A    between atoms: _509  and  _510
REMARK  214  A    between atoms: _516  and  _517
REMARK  215  A    between atoms: _522  and  _524
REMARK  216  A    between atoms: _524  and  _525
REMARK  217  A    between atoms: _524  and  _527
REMARK  218  A    between atoms: _527  and  _528
REMARK  219  A    between atoms: _528  and  _529
REMARK  220  A    between atoms: _529  and  _530
REMARK  221  A    between atoms: _539  and  _541
REMARK  222  A    between atoms: _541  and  _542
REMARK  223  A    between atoms: _541  and  _544
REMARK  224  A    between atoms: _544  and  _545
REMARK  225  A    between atoms: _548  and  _550
REMARK  226  A    between atoms: _550  and  _551
REMARK  227  A    between atoms: _550  and  _553
REMARK  228  A    between atoms: _553  and  _554
REMARK  229  A    between atoms: _556  and  _558
REMARK  230  A    between atoms: _558  and  _559
REMARK  231  A    between atoms: _558  and  _561
REMARK  232  A    between atoms: _561  and  _562
REMARK  233  A    between atoms: _562  and  _563
REMARK  234  A    between atoms: _563  and  _564
REMARK  235  A    between atoms: _564  and  _565
REMARK  236  A    between atoms: _569  and  _571
REMARK  237  A    between atoms: _571  and  _572
REMARK  238  A    between atoms: _571  and  _574
REMARK  239  A    between atoms: _574  and  _575
REMARK  240  A    between atoms: _578  and  _580
REMARK  241  A    between atoms: _580  and  _581
REMARK  242  A    between atoms: _583  and  _585
REMARK  243  A    between atoms: _585  and  _586
REMARK  244  A    between atoms: _585  and  _588
REMARK  245  A    between atoms: _588  and  _589
REMARK  246  A    between atoms: _591  and  _593
REMARK  247  A    between atoms: _593  and  _594
REMARK  248  A    between atoms: _596  and  _598
REMARK  249  A    between atoms: _598  and  _599
REMARK  250  A    between atoms: _598  and  _601
REMARK  251  A    between atoms: _601  and  _602
REMARK  252  A    between atoms: _607  and  _609
REMARK  253  A    between atoms: _609  and  _610
REMARK  254  A    between atoms: _609  and  _612
REMARK  255  A    between atoms: _612  and  _613
REMARK  256  A    between atoms: _616  and  _618
REMARK  257  A    between atoms: _618  and  _619
REMARK  258  A    between atoms: _618  and  _621
REMARK  259  A    between atoms: _621  and  _622
REMARK  260  A    between atoms: _628  and  _630
REMARK  261  A    between atoms: _630  and  _631
REMARK  262  A    between atoms: _630  and  _633
REMARK  263  A    between atoms: _633  and  _634
REMARK  264  A    between atoms: _634  and  _635
REMARK  265  A    between atoms: _638  and  _640
REMARK  266  A    between atoms: _640  and  _641
REMARK  267  A    between atoms: _640  and  _643
REMARK  268  A    between atoms: _643  and  _644
REMARK  269  A    between atoms: _644  and  _645
REMARK  270  A    between atoms: _645  and  _646
REMARK  271  A    between atoms: _655  and  _657
REMARK  272  A    between atoms: _657  and  _658
REMARK  273  A    between atoms: _657  and  _660
REMARK  274  A    between atoms: _660  and  _661
REMARK  275  A    between atoms: _661  and  _662
REMARK  276  A    between atoms: _662  and  _663
REMARK  277  A    between atoms: _672  and  _674
REMARK  278  A    between atoms: _674  and  _675
REMARK  279  A    between atoms: _674  and  _677
REMARK  280  A    between atoms: _677  and  _678
REMARK  281  A    between atoms: _683  and  _684
REMARK  282  A    between atoms: _686  and  _688
REMARK  283  A    between atoms: _688  and  _689
REMARK  284  A    between atoms: _688  and  _691
REMARK  285  A    between atoms: _691  and  _692
REMARK  286  A    between atoms: _695  and  _697
REMARK  287  A    between atoms: _697  and  _698
REMARK  288  A    between atoms: _697  and  _700
REMARK  289  A    between atoms: _700  and  _701
REMARK  290  A    between atoms: _701  and  _702
REMARK  291  A    between atoms: _702  and  _703
REMARK  292  A    between atoms: _703  and  _704
REMARK  293  A    between atoms: _708  and  _710
REMARK  294  A    between atoms: _710  and  _711
REMARK  295  A    between atoms: _710  and  _713
REMARK  296  A    between atoms: _713  and  _714
REMARK  297  A    between atoms: _719  and  _721
REMARK  298  A    between atoms: _721  and  _722
REMARK  299  A    between atoms: _721  and  _724
REMARK  300  A    between atoms: _724  and  _725
REMARK  301  A    between atoms: _735  and  _737
REMARK  302  A    between atoms: _737  and  _738
REMARK  303  A    between atoms: _737  and  _740
REMARK  304  A    between atoms: _740  and  _741
REMARK  305  A    between atoms: _741  and  _742
REMARK  306  A    between atoms: _745  and  _747
REMARK  307  A    between atoms: _747  and  _748
REMARK  308  A    between atoms: _747  and  _750
REMARK  309  A    between atoms: _750  and  _751
REMARK  310  A    between atoms: _754  and  _756
REMARK  311  A    between atoms: _756  and  _757
REMARK  312  A    between atoms: _756  and  _759
REMARK  313  A    between atoms: _759  and  _760
REMARK  314  A    between atoms: _765  and  _767
REMARK  315  A    between atoms: _767  and  _768
REMARK  316  A    between atoms: _767  and  _770
REMARK  317  A    between atoms: _770  and  _771
REMARK  318  A    between atoms: _777  and  _779
REMARK  319  A    between atoms: _779  and  _780
REMARK  320  A    between atoms: _779  and  _782
REMARK  321  A    between atoms: _782  and  _783
REMARK  322  A    between atoms: _785  and  _787
REMARK  323  A    between atoms: _787  and  _788
REMARK  324  A    between atoms: _790  and  _792
REMARK  325  A    between atoms: _792  and  _793
REMARK  326  A    between atoms: _792  and  _795
REMARK  327  A    between atoms: _795  and  _796
REMARK  328  A    between atoms: _801  and  _802
REMARK  329  A    between atoms: _804  and  _806
REMARK  330  A    between atoms: _806  and  _807
REMARK  331  A    between atoms: _806  and  _809
REMARK  332  A    between atoms: _809  and  _810
REMARK  333  A    between atoms: _815  and  _816
REMARK  334  A    between atoms: _818  and  _820
REMARK  335  A    between atoms: _820  and  _821
REMARK  336  A    between atoms: _820  and  _823
REMARK  337  A    between atoms: _823  and  _824
REMARK  338  A    between atoms: _828  and  ZN_938
REMARK  339  A    between atoms: _829  and  _831
REMARK  340  A    between atoms: _831  and  _832
REMARK  341  A    between atoms: _831  and  _834
REMARK  342  A    between atoms: _834  and  _835
REMARK  343  A    between atoms: _835  and  _836
REMARK  344  A    between atoms: _839  and  _841
REMARK  345  A    between atoms: _841  and  _842
REMARK  346  A    between atoms: _841  and  _844
REMARK  347  A    between atoms: _844  and  _845
REMARK  348  A    between atoms: _845  and  _846
REMARK  349  A    between atoms: _846  and  _847
REMARK  350  A    between atoms: _856  and  _858
REMARK  351  A    between atoms: _858  and  _859
REMARK  352  A    between atoms: _858  and  _861
REMARK  353  A    between atoms: _861  and  _862
REMARK  354  A    between atoms: _867  and  _868
REMARK  355  A    between atoms: _870  and  _872
REMARK  356  A    between atoms: _872  and  _873
REMARK  357  A    between atoms: _872  and  _875
REMARK  358  A    between atoms: _875  and  _876
REMARK  359  A    between atoms: _878  and  _880
REMARK  360  A    between atoms: _880  and  _881
REMARK  361  A    between atoms: _880  and  _883
REMARK  362  A    between atoms: _883  and  _884
REMARK  363  A    between atoms: _889  and  _891
REMARK  364  A    between atoms: _891  and  _892
REMARK  365  A    between atoms: _891  and  _894
REMARK  366  A    between atoms: _894  and  _895
REMARK  367  A    between atoms: _900  and  _902
REMARK  368  A    between atoms: _902  and  _903
REMARK  369  A    between atoms: _902  and  _905
REMARK  370  A    between atoms: _905  and  _906
REMARK  371  A    between atoms: _906  and  _907
REMARK  372  A    between atoms: _907  and  _908
REMARK  373  A    between atoms: _908  and  _909
REMARK  374  A    between atoms: _913  and  _915
REMARK  375  A    between atoms: _915  and  _916
REMARK  376  A    between atoms: _915  and  _918
REMARK  377  A    between atoms: _918  and  _919
REMARK  378  A    between atoms: _924  and  _925
REMARK  379  A    between atoms: _927  and  _929
REMARK  380  A    between atoms: _929  and  _930
REMARK  381  A    between atoms: _933  and  _935
REMARK  382  A    between atoms: _935  and  _936
REMARK                            x       y       z     vdW  Elec       q    Type
REMARK                         _______ _______ _______ _____ _____    ______ ____
ROOT
ATOM      1  NE  ARG A   1      19.842  49.707  50.016  0.00  0.00    -0.265 N 
ATOM      2  HE  ARG A   1      19.717  48.984  50.753  0.00  0.00    +0.259 HD
ATOM      3  CZ  ARG A   1      19.837  49.324  48.734  0.00  0.00    +0.342 C 
ATOM      4  NH2 ARG A   1      19.631  48.032  48.419  0.00  0.00    -0.292 N 
ATOM      5 HH21 ARG A   1      19.476  47.332  49.172  0.00  0.00    +0.255 HD
ATOM      6 HH22 ARG A   1      19.627  47.734  47.423  0.00  0.00    +0.255 HD
ATOM      7  NH1 ARG A   1      19.981  50.216  47.750  0.00  0.00    -0.292 N 
ATOM      8 HH11 ARG A   1      20.099  51.224  47.975  0.00  0.00    +0.255 HD
ATOM      9 HH12 ARG A   1      19.975  49.902  46.759  0.00  0.00    +0.255 HD
ENDROOT
BRANCH   1  10
ATOM     10  CD  ARG A   1      20.020  51.128  50.433  0.00  0.00    +0.174 C 
BRANCH  10  11
ATOM     11  CG  ARG A   1      20.357  51.274  51.943  0.00  0.00    +0.045 C 
BRANCH  11  12
ATOM     12  CB  ARG A   1      19.357  50.543  52.840  0.00  0.00    +0.029 C 
BRANCH  12  13
ATOM     13  CA  ARG A   1      19.514  50.899  54.336  0.00  0.00    +0.133 C 
BRANCH  13  14
ATOM     14  N   ARG A   1      19.176  52.317  54.577  0.00  0.00    -0.239 NA
ATOM     15  H   ARG A   1      19.926  53.037  54.547  0.00  0.00    +0.142 HD
ENDBRANCH  13  14
BRANCH  13  16
ATOM     16  C   ARG A   1      20.975  50.730  54.730  0.00  0.00    +0.224 C 
ATOM     17  O   ARG A   1      21.739  51.714  54.768  0.00  0.00    -0.287 OA
ENDBRANCH  13  16
ENDBRANCH  12  13
ENDBRANCH  11  12
ENDBRANCH  10  11
ENDBRANCH   1  10
TORSDOF 6
REMARK  Name = ../refined-set-2016/2xeg/2xeg_pocket.pdb
REMARK  382 active torsions:
REMARK  status: ('A' for Active; 'I' for Inactive)
REMARK    1  A    between atoms: _1  and  _3
REMARK    2  A    between atoms: _3  and  _4
REMARK    3  A    between atoms: _7  and  _9
REMARK    4  A    between atoms: _9  and  _10
REMARK    5  A    between atoms: _9  and  _12
REMARK    6  A    between atoms: _12  and  _13
REMARK    7  A    between atoms: _19  and  _21
REMARK    8  A    between atoms: _21  and  _22
REMARK    9  A    between atoms: _21  and  _24
REMARK   10  A    between atoms: _24  and  _25
REMARK   11  A    between atoms: _30  and  _31
REMARK   12  A    between atoms: _33  and  _35
REMARK   13  A    between atoms: _35  and  _36
REMARK   14  A    between atoms: _38  and  _40
REMARK   15  A    between atoms: _40  and  _41
REMARK   16  A    between atoms: _40  and  _43
REMARK   17  A    between atoms: _43  and  _44
REMARK   18  A    between atoms: _44  and  _45
REMARK   19  A    between atoms: _45  and  _46
REMARK   20  A    between atoms: _46  and  _47
REMARK   21  A    between atoms: _51  and  _53
REMARK   22  A    between atoms: _53  and  _54
REMARK   23  A    between atoms: _53  and  _56
REMARK   24  A    between atoms: _59  and  _61
REMARK   25  A    between atoms: _61  and  _62
REMARK   26  A    between atoms: _61  and  _64
REMARK   27  A    between atoms: _64  and  _65
REMARK   28  A    between atoms: _71  and  _73
REMARK   29  A    between atoms: _73  and  _74
REMARK   30  A    between atoms: _73  and  _76
REMARK   31  A    between atoms: _76  and  _77
REMARK   32  A    between atoms: _77  and  _78
REMARK   33  A    between atoms: _78  and  _79
REMARK   34  A    between atoms: _88  and  _90
REMARK   35  A    between atoms: _90  and  _91
REMARK   36  A    between atoms: _93  and  _95
REMARK   37  A    between atoms: _95  and  _96
REMARK   38  A    between atoms: _95  and  _98
REMARK   39  A    between atoms: _98  and  _99
REMARK   40  A    between atoms: _99  and  _100
REMARK   41  A    between atoms: _100  and  _101
REMARK   42  A    between atoms: _101  and  _102
REMARK   43  A    between atoms: _106  and  _108
REMARK   44  A    between atoms: _108  and  _109
REMARK   45  A    between atoms: _108  and  _111
REMARK   46  A    between atoms: _111  and  _112
REMARK   47  A    between atoms: _115  and  _117
REMARK   48  A    between atoms: _117  and  _118
REMARK   49  A    between atoms: _117  and  _120
REMARK   50  A    between atoms: _120  and  _121
REMARK   51  A    between atoms: _126  and  _127
REMARK   52  A    between atoms: _129  and  _131
REMARK   53  A    between atoms: _131  and  _132
REMARK   54  A    between atoms: _131  and  _134
REMARK   55  A    between atoms: _134  and  _135
REMARK   56  A    between atoms: _135  and  _136
REMARK   57  A    between atoms: _141  and  _143
REMARK   58  A    between atoms: _143  and  _144
REMARK   59  A    between atoms: _143  and  _146
REMARK   60  A    between atoms: _146  and  _147
REMARK   61  A    between atoms: _147  and  _148
REMARK   62  A    between atoms: _148  and  _149
REMARK   63  A    between atoms: _158  and  _160
REMARK   64  A    between atoms: _160  and  _161
REMARK   65  A    between atoms: _163  and  _165
REMARK   66  A    between atoms: _165  and  _166
REMARK   67  A    between atoms: _165  and  _168
REMARK   68  A    between atoms: _168  and  _169
REMARK   69  A    between atoms: _174  and  _176
REMARK   70  A    between atoms: _176  and  _177
REMARK   71  A    between atoms: _176  and  _179
REMARK   72  A    between atoms: _179  and  _180
REMARK   73  A    between atoms: _183  and  _185
REMARK   74  A    between atoms: _185  and  _186
REMARK   75  A    between atoms: _185  and  _188
REMARK   76  A    between atoms: _188  and  _189
REMARK   77  A    between atoms: _192  and  _194
REMARK   78  A    between atoms: _194  and  _195
REMARK   79  A    between atoms: _194  and  _197
REMARK   80  A    between atoms: _197  and  _198
REMARK   81  A    between atoms: _203  and  _205
REMARK   82  A    between atoms: _205  and  _206
REMARK   83  A    between atoms: _205  and  _208
REMARK   84  A    between atoms: _208  and  _209
REMARK   85  A    between atoms: _212  and  _214
REMARK   86  A    between atoms: _214  and  _215
REMARK   87  A    between atoms: _214  and  _217
REMARK   88  A    between atoms: _217  and  _218
REMARK   89  A    between atoms: _223  and  _225
REMARK   90  A    between atoms: _225  and  _226
REMARK   91  A    between atoms: _228  and  _230
REMARK   92  A    between atoms: _230  and  _231
REMARK   93  A    between atoms: _230  and  _233
REMARK   94  A    between atoms: _233  and  _234
REMARK   95  A    between atoms: _238  and  ZN_939
REMARK   96  A    between atoms: _239  and  _241
REMARK   97  A    between atoms: _241  and  _242
REMARK   98  A    between atoms: _241  and  _244
REMARK   99  A    between atoms: _244  and  _245
REMARK  100  A    between atoms: _248  and  _250
REMARK  101  A    between atoms: _250  and  _251
REMARK  102  A    between atoms: _250  and  _253
REMARK  103  A    between atoms: _253  and  _254
REMARK  104  A    between atoms: _264  and  _266
REMARK  105  A    between atoms: _266  and  _267
REMARK  106  A    between atoms: _266  and  _269
REMARK  107  A    between atoms: _269  and  _270
REMARK  108  A    between atoms: _273  and  _275
REMARK  109  A    between atoms: _275  and  _276
REMARK  110  A    between atoms: _275  and  _278
REMARK  111  A    between atoms: _278  and  _279
REMARK  112  A    between atoms: _279  and  _280
REMARK  113  A    between atoms: _279  and  _281
REMARK  114  A    between atoms: _280  and  ZN_939
REMARK  115  A    between atoms: _281  and  ZN_938
REMARK  116  A    between atoms: _283  and  _284
REMARK  117  A    between atoms: _289  and  _291
REMARK  118  A    between atoms: _291  and  _292
REMARK  119  A    between atoms: _295  and  _297
REMARK  120  A    between atoms: _297  and  _298
REMARK  121  A    between atoms: _297  and  _300
REMARK  122  A    between atoms: _300  and  _301
REMARK  123  A    between atoms: _301  and  _302
REMARK  124  A    between atoms: _305  and  _307
REMARK  125  A    between atoms: _307  and  _308
REMARK  126  A    between atoms: _307  and  _310
REMARK  127  A    between atoms: _310  and  _311
REMARK  128  A    between atoms: _311  and  _312
REMARK  129  A    between atoms: _312  and  _314
REMARK  130  A    between atoms: _314  and  ZN_938
REMARK  131  A    between atoms: _315  and  _317
REMARK  132  A    between atoms: _317  and  _318
REMARK  133  A    between atoms: _317  and  _320
REMARK  134  A    between atoms: _320  and  _321
REMARK  135  A    between atoms: _327  and  _329
REMARK  136  A    between atoms: _329  and  _330
REMARK  137  A    between atoms: _332  and  _334
REMARK  138  A    between atoms: _334  and  _335
REMARK  139  A    between atoms: _334  and  _337
REMARK  140  A    between atoms: _337  and  _338
REMARK  141  A    between atoms: _341  and  _343
REMARK  142  A    between atoms: _343  and  _344
REMARK  143  A    between atoms: _343  and  _346
REMARK  144  A    between atoms: _346  and  _347
REMARK  145  A    between atoms: _350  and  _352
REMARK  146  A    between atoms: _352  and  _353
REMARK  147  A    between atoms: _352  and  _355
REMARK  148  A    between atoms: _355  and  _356
REMARK  149  A    between atoms: _361  and  _363
REMARK  150  A    between atoms: _363  and  _364
REMARK  151  A    between atoms: _363  and  _366
REMARK  152  A    between atoms: _366  and  _367
REMARK  153  A    between atoms: _367  and  _369
REMARK  154  A    between atoms: _369  and  ZN_939
REMARK  155  A    between atoms: _370  and  _372
REMARK  156  A    between atoms: _372  and  _373
REMARK  157  A    between atoms: _372  and  _375
REMARK  158  A    between atoms: _375  and  _376
REMARK  159  A    between atoms: _378  and  _380
REMARK  160  A    between atoms: _380  and  _381
REMARK  161  A    between atoms: _380  and  _383
REMARK  162  A    between atoms: _383  and  _384
REMARK  163  A    between atoms: _386  and  _388
REMARK  164  A    between atoms: _388  and  _389
REMARK  165  A    between atoms: _388  and  _391
REMARK  166  A    between atoms: _391  and  _392
REMARK  167  A    between atoms: _395  and  _397
REMARK  168  A    between atoms: _397  and  _398
REMARK  169  A    between atoms: _397  and  _400
REMARK  170  A    between atoms: _400  and  _401
REMARK  171  A    between atoms: _401  and  _402
REMARK  172  A    between atoms: _405  and  _407
REMARK  173  A    between atoms: _407  and  _408
REMARK  174  A    between atoms: _407  and  _410
REMARK  175  A    between atoms: _410  and  _411
REMARK  176  A    between atoms: _416  and  _417
REMARK  177  A    between atoms: _419  and  _421
REMARK  178  A    between atoms: _421  and  _422
REMARK  179  A    between atoms: _421  and  _424
REMARK  180  A    between atoms: _424  and  _425
REMARK  181  A    between atoms: _428  and  _430
REMARK  182  A    between atoms: _430  and  _431
REMARK  183  A    between atoms: _430  and  _433
REMARK  184  A    between atoms: _433  and  _434
REMARK  185  A    between atoms: _437  and  _439
REMARK  186  A    between atoms: _439  and  _440
REMARK  187  A    between atoms: _439  and  _442
REMARK  188  A    between atoms: _442  and  _443
REMARK  189  A    between atoms: _443  and  _444
REMARK  190  A    between atoms: _444  and  _445
REMARK  191  A    between atoms: _454  and  _456
REMARK  192  A    between atoms: _456  and  _457
REMARK  193  A    between atoms: _456  and  _459
REMARK  194  A    between atoms: _462  and  _464
REMARK  195  A    between atoms: _464  and  _465
REMARK  196  A    between atoms: _464  and  _467
REMARK  197  A    between atoms: _467  and  _468
REMARK  198  A    between atoms: _471  and  _473
REMARK  199  A    between atoms: _473  and  _474
REMARK  200  A    between atoms: _473  and  _476
REMARK  201  A    between atoms: _476  and  _477
REMARK  202  A    between atoms: _487  and  _489
REMARK  203  A    between atoms: _489  and  _490
REMARK  204  A    between atoms: _489  and  _492
REMARK  205  A    between atoms: _492  and  _493
REMARK  206  A    between atoms: _493  and  _494
REMARK  207  A    between atoms: _494  and  _495
REMARK  208  A    between atoms: _495  and  _496
REMARK  209  A    between atoms: _500  and  _502
REMARK  210  A    between atoms: _502  and  _503
REMARK  211  A    between atoms: _502  and  _505
REMARK  212  A    between atoms: _505  and  _506
REMARK  213  A    between atoms: _509  and  _510
REMARK  214  A    between atoms: _516  and  _517
REMARK  215  A    between atoms: _522  and  _524
REMARK  216  A    between atoms: _524  and  _525
REMARK  217  A    between atoms: _524  and  _527
REMARK  218  A    between atoms: _527  and  _528
REMARK  219  A    between atoms: _528  and  _529
REMARK  220  A    between atoms: _529  and  _530
REMARK  221  A    between atoms: _539  and  _541
REMARK  222  A    between atoms: _541  and  _542
REMARK  223  A    between atoms: _541  and  _544
REMARK  224  A    between atoms: _544  and  _545
REMARK  225  A    between atoms: _548  and  _550
REMARK  226  A    between atoms: _550  and  _551
REMARK  227  A    between atoms: _550  and  _553
REMARK  228  A    between atoms: _553  and  _554
REMARK  229  A    between atoms: _556  and  _558
REMARK  230  A    between atoms: _558  and  _559
REMARK  231  A    between atoms: _558  and  _561
REMARK  232  A    between atoms: _561  and  _562
REMARK  233  A    between atoms: _562  and  _563
REMARK  234  A    between atoms: _563  and  _564
REMARK  235  A    between atoms: _564  and  _565
REMARK  236  A    between atoms: _569  and  _571
REMARK  237  A    between atoms: _571  and  _572
REMARK  238  A    between atoms: _571  and  _574
REMARK  239  A    between atoms: _574  and  _575
REMARK  240  A    between atoms: _578  and  _580
REMARK  241  A    between atoms: _580  and  _581
REMARK  242  A    between atoms: _583  and  _585
REMARK  243  A    between atoms: _585  and  _586
REMARK  244  A    between atoms: _585  and  _588
REMARK  245  A    between atoms: _588  and  _589
REMARK  246  A    between atoms: _591  and  _593
REMARK  247  A    between atoms: _593  and  _594
REMARK  248  A    between atoms: _596  and  _598
REMARK  249  A    between atoms: _598  and  _599
REMARK  250  A    between atoms: _598  and  _601
REMARK  251  A    between atoms: _601  and  _602
REMARK  252  A    between atoms: _607  and  _609
REMARK  253  A    between atoms: _609  and  _610
REMARK  254  A    between atoms: _609  and  _612
REMARK  255  A    between atoms: _612  and  _613
REMARK  256  A    between atoms: _616  and  _618
REMARK  257  A    between atoms: _618  and  _619
REMARK  258  A    between atoms: _618  and  _621
REMARK  259  A    between atoms: _621  and  _622
REMARK  260  A    between atoms: _628  and  _630
REMARK  261  A    between atoms: _630  and  _631
REMARK  262  A    between atoms: _630  and  _633
REMARK  263  A    between atoms: _633  and  _634
REMARK  264  A    between atoms: _634  and  _635
REMARK  265  A    between atoms: _638  and  _640
REMARK  266  A    between atoms: _640  and  _641
REMARK  267  A    between atoms: _640  and  _643
REMARK  268  A    between atoms: _643  and  _644
REMARK  269  A    between atoms: _644  and  _645
REMARK  270  A    between atoms: _645  and  _646
REMARK  271  A    between atoms: _655  and  _657
REMARK  272  A    between atoms: _657  and  _658
REMARK  273  A    between atoms: _657  and  _660
REMARK  274  A    between atoms: _660  and  _661
REMARK  275  A    between atoms: _661  and  _662
REMARK  276  A    between atoms: _662  and  _663
REMARK  277  A    between atoms: _672  and  _674
REMARK  278  A    between atoms: _674  and  _675
REMARK  279  A    between atoms: _674  and  _677
REMARK  280  A    between atoms: _677  and  _678
REMARK  281  A    between atoms: _683  and  _684
REMARK  282  A    between atoms: _686  and  _688
REMARK  283  A    between atoms: _688  and  _689
REMARK  284  A    between atoms: _688  and  _691
REMARK  285  A    between atoms: _691  and  _692
REMARK  286  A    between atoms: _695  and  _697
REMARK  287  A    between atoms: _697  and  _698
REMARK  288  A    between atoms: _697  and  _700
REMARK  289  A    between atoms: _700  and  _701
REMARK  290  A    between atoms: _701  and  _702
REMARK  291  A    between atoms: _702  and  _703
REMARK  292  A    between atoms: _703  and  _704
REMARK  293  A    between atoms: _708  and  _710
REMARK  294  A    between atoms: _710  and  _711
REMARK  295  A    between atoms: _710  and  _713
REMARK  296  A    between atoms: _713  and  _714
REMARK  297  A    between atoms: _719  and  _721
REMARK  298  A    between atoms: _721  and  _722
REMARK  299  A    between atoms: _721  and  _724
REMARK  300  A    between atoms: _724  and  _725
REMARK  301  A    between atoms: _735  and  _737
REMARK  302  A    between atoms: _737  and  _738
REMARK  303  A    between atoms: _737  and  _740
REMARK  304  A    between atoms: _740  and  _741
REMARK  305  A    between atoms: _741  and  _742
REMARK  306  A    between atoms: _745  and  _747
REMARK  307  A    between atoms: _747  and  _748
REMARK  308  A    between atoms: _747  and  _750
REMARK  309  A    between atoms: _750  and  _751
REMARK  310  A    between atoms: _754  and  _756
REMARK  311  A    between atoms: _756  and  _757
REMARK  312  A    between atoms: _756  and  _759
REMARK  313  A    between atoms: _759  and  _760
REMARK  314  A    between atoms: _765  and  _767
REMARK  315  A    between atoms: _767  and  _768
REMARK  316  A    between atoms: _767  and  _770
REMARK  317  A    between atoms: _770  and  _771
REMARK  318  A    between atoms: _777  and  _779
REMARK  319  A    between atoms: _779  and  _780
REMARK  320  A    between atoms: _779  and  _782
REMARK  321  A    between atoms: _782  and  _783
REMARK  322  A    between atoms: _785  and  _787
REMARK  323  A    between atoms: _787  and  _788
REMARK  324  A    between atoms: _790  and  _792
REMARK  325  A    between atoms: _792  and  _793
REMARK  326  A    between atoms: _792  and  _795
REMARK  327  A    between atoms: _795  and  _796
REMARK  328  A    between atoms: _801  and  _802
REMARK  329  A    between atoms: _804  and  _806
REMARK  330  A    between atoms: _806  and  _807
REMARK  331  A    between atoms: _806  and  _809
REMARK  332  A    between atoms: _809  and  _810
REMARK  333  A    between atoms: _815  and  _816
REMARK  334  A    between atoms: _818  and  _820
REMARK  335  A    between atoms: _820  and  _821
REMARK  336  A    between atoms: _820  and  _823
REMARK  337  A    between atoms: _823  and  _824
REMARK  338  A    between atoms: _828  and  ZN_938
REMARK  339  A    between atoms: _829  and  _831
REMARK  340  A    between atoms: _831  and  _832
REMARK  341  A    between atoms: _831  and  _834
REMARK  342  A    between atoms: _834  and  _835
REMARK  343  A    between atoms: _835  and  _836
REMARK  344  A    between atoms: _839  and  _841
REMARK  345  A    between atoms: _841  and  _842
REMARK  346  A    between atoms: _841  and  _844
REMARK  347  A    between atoms: _844  and  _845
REMARK  348  A    between atoms: _845  and  _846
REMARK  349  A    between atoms: _846  and  _847
REMARK  350  A    between atoms: _856  and  _858
REMARK  351  A    between atoms: _858  and  _859
REMARK  352  A    between atoms: _858  and  _861
REMARK  353  A    between atoms: _861  and  _862
REMARK  354  A    between atoms: _867  and  _868
REMARK  355  A    between atoms: _870  and  _872
REMARK  356  A    between atoms: _872  and  _873
REMARK  357  A    between atoms: _872  and  _875
REMARK  358  A    between atoms: _875  and  _876
REMARK  359  A    between atoms: _878  and  _880
REMARK  360  A    between atoms: _880  and  _881
REMARK  361  A    between atoms: _880  and  _883
REMARK  362  A    between atoms: _883  and  _884
REMARK  363  A    between atoms: _889  and  _891
REMARK  364  A    between atoms: _891  and  _892
REMARK  365  A    between atoms: _891  and  _894
REMARK  366  A    between atoms: _894  and  _895
REMARK  367  A    between atoms: _900  and  _902
REMARK  368  A    between atoms: _902  and  _903
REMARK  369  A    between atoms: _902  and  _905
REMARK  370  A    between atoms: _905  and  _906
REMARK  371  A    between atoms: _906  and  _907
REMARK  372  A    between atoms: _907  and  _908
REMARK  373  A    between atoms: _908  and  _909
REMARK  374  A    between atoms: _913  and  _915
REMARK  375  A    between atoms: _915  and  _916
REMARK  376  A    between atoms: _915  and  _918
REMARK  377  A    between atoms: _918  and  _919
REMARK  378  A    between atoms: _924  and  _925
REMARK  379  A    between atoms: _927  and  _929
REMARK  380  A    between atoms: _929  and  _930
REMARK  381  A    between atoms: _933  and  _935
REMARK  382  A    between atoms: _935  and  _936
REMARK                            x       y       z     vdW  Elec       q    Type
REMARK                         _______ _______ _______ _____ _____    ______ ____
ROOT
ATOM      1  C   LYS A   4      34.297  46.038  49.707  0.00  0.00    +0.241 C 
ATOM      2  O   LYS A   4      33.804  47.126  50.013  0.00  0.00    -0.273 OA
ATOM      3  N   ASN A   5      35.595  45.869  49.468  0.00  0.00    -0.297 N 
ATOM      4  H   ASN A   5      35.964  44.906  49.335  0.00  0.00    +0.150 HD
ENDROOT
BRANCH   3   5
ATOM      5  CA  ASN A   5      36.506  46.990  49.389  0.00  0.00    +0.158 C 
BRANCH   5   6
ATOM      6  C   ASN A   5      36.405  47.549  47.992  0.00  0.00    +0.241 C 
ATOM      7  N   TRP A   6      35.837  48.732  47.879  0.00  0.00    -0.297 N 
ATOM      8  H   TRP A   6      35.561  49.246  48.740  0.00  0.00    +0.150 HD
ATOM      9  O   ASN A   5      36.839  46.917  47.030  0.00  0.00    -0.273 OA
BRANCH   7  10
ATOM     10  CA  TRP A   6      35.587  49.336  46.583  0.00  0.00    +0.153 C 
BRANCH  10  11
ATOM     11  C   TRP A   6      36.897  49.706  45.863  0.00  0.00    +0.241 C 
ATOM     12  N   GLU A   7      37.965  49.913  46.635  0.00  0.00    -0.297 N 
ATOM     13  H   GLU A   7      37.867  49.787  47.663  0.00  0.00    +0.150 HD
ATOM     14  O   TRP A   6      36.929  49.757  44.629  0.00  0.00    -0.273 OA
BRANCH  12  15
ATOM     15  CA  GLU A   7      39.271  50.311  46.099  0.00  0.00    +0.149 C 
BRANCH  15  16
ATOM     16  C   GLU A   7      39.908  49.190  45.303  0.00  0.00    +0.241 C 
ATOM     17  N   THR A   8      39.893  47.996  45.872  0.00  0.00    -0.295 N 
ATOM     18  H   THR A   8      39.348  47.852  46.746  0.00  0.00    +0.150 HD
ATOM     19  O   GLU A   7      40.418  49.401  44.205  0.00  0.00    -0.273 OA
BRANCH  17  20
ATOM     20  CA  THR A   8      40.624  46.887  45.297  0.00  0.00    +0.176 C 
BRANCH  20  21
ATOM     21  C   THR A   8      39.744  46.024  44.414  0.00  0.00    +0.243 C 
ATOM     22  N   ASN A   9      38.433  46.284  44.439  0.00  0.00    -0.298 N 
ATOM     23  H   ASN A   9      38.089  47.083  45.009  0.00  0.00    +0.150 HD
ATOM     24  O   THR A   8      40.243  45.141  43.717  0.00  0.00    -0.273 OA
BRANCH  22  25
ATOM     25  CA  ASN A   9      37.462  45.478  43.688  0.00  0.00    +0.146 C 
BRANCH  25  26
ATOM     26  C   ASN A   9      36.736  46.271  42.606  0.00  0.00    +0.227 C 
ATOM     27  O   ASN A   9      35.912  47.135  42.910  0.00  0.00    -0.286 OA
ENDBRANCH  25  26
BRANCH  25  28
ATOM     28  CB  ASN A   9      36.453  44.824  44.637  0.00  0.00    +0.112 C 
BRANCH  28  29
ATOM     29  CG  ASN A   9      37.107  43.839  45.593  0.00  0.00    +0.222 C 
ATOM     30  ND2 ASN A   9      37.103  44.167  46.891  0.00  0.00    -0.329 N 
ATOM     31 HD21 ASN A   9      37.535  43.529  47.590  0.00  0.00    +0.145 HD
ATOM     32 HD22 ASN A   9      36.668  45.059  47.201  0.00  0.00    +0.145 HD
ATOM     33  OD1 ASN A   9      37.612  42.788  45.170  0.00  0.00    -0.275 OA
ENDBRANCH  28  29
ENDBRANCH  25  28
ENDBRANCH  22  25
ENDBRANCH  20  21
BRANCH  20  34
ATOM     34  CB  THR A   8      41.274  46.038  46.402  0.00  0.00    +0.137 C 
ATOM     35  CG2 THR A   8      42.223  46.900  47.250  0.00  0.00    +0.034 C 
BRANCH  34  36
ATOM     36  OG1 THR A   8      40.253  45.484  47.242  0.00  0.00    -0.382 OA
ATOM     37  HG1 THR A   8      40.673  44.938  47.953  0.00  0.00    +0.210 HD
ENDBRANCH  34  36
ENDBRANCH  20  34
ENDBRANCH  17  20
ENDBRANCH  15  16
BRANCH  15  38
ATOM     38  CB  GLU A   7      40.239  50.691  47.227  0.00  0.00    +0.041 C 
BRANCH  38  39
ATOM     39  CG  GLU A   7      39.694  51.694  48.228  0.00  0.00    +0.116 C 
BRANCH  39  40
ATOM     40  CD  GLU A   7      39.689  53.103  47.682  0.00  0.00    +0.365 C 
ATOM     41  OE2 GLU A   7      40.796  53.666  47.498  0.00  0.00    -0.246 OA
ATOM     42  OE1 GLU A   7      38.582  53.647  47.440  0.00  0.00    -0.246 OA
ENDBRANCH  39  40
ENDBRANCH  38  39
ENDBRANCH  15  38
ENDBRANCH  12  15
ENDBRANCH  10  11
BRANCH  10  43
ATOM     43  CB  TRP A   6      34.672  50.550  46.758  0.00  0.00    +0.057 C 
BRANCH  43  44
ATOM     44  CG  TRP A   6      33.237  50.133  47.039  0.00  0.00    -0.002 A 
ATOM     45  CD1 TRP A   6      32.796  49.174  47.945  0.00  0.00    +0.068 A 
ATOM     46  NE1 TRP A   6      31.425  49.066  47.896  0.00  0.00    -0.352 N 
ATOM     47  HE1 TRP A   6      30.846  48.417  48.465  0.00  0.00    +0.166 HD
ATOM     48  CE2 TRP A   6      30.952  49.960  46.969  0.00  0.00    +0.056 A 
ATOM     49  CZ2 TRP A   6      29.637  50.239  46.582  0.00  0.00    +0.017 A 
ATOM     50  CH2 TRP A   6      29.455  51.202  45.612  0.00  0.00    +0.001 A 
ATOM     51  CZ3 TRP A   6      30.545  51.906  45.044  0.00  0.00    +0.000 A 
ATOM     52  CE3 TRP A   6      31.846  51.640  45.437  0.00  0.00    +0.001 A 
ATOM     53  CD2 TRP A   6      32.068  50.651  46.418  0.00  0.00    +0.013 A 
ENDBRANCH  43  44
ENDBRANCH  10  43
ENDBRANCH   7  10
ENDBRANCH   5   6
BRANCH   5  54
ATOM     54  CB  ASN A   5      37.944  46.508  49.635  0.00  0.00    +0.114 C 
BRANCH  54  55
ATOM     55  CG  ASN A   5      38.950  47.651  49.607  0.00  0.00    +0.222 C 
ATOM     56  ND2 ASN A   5      40.138  47.396  50.173  0.00  0.00    -0.329 N 
ATOM     57 HD21 ASN A   5      40.331  46.457  50.577  0.00  0.00    +0.145 HD
ATOM     58 HD22 ASN A   5      40.867  48.137  50.209  0.00  0.00    +0.145 HD
ATOM     59  OD1 ASN A   5      38.664  48.760  49.107  0.00  0.00    -0.275 OA
ENDBRANCH  54  55
ENDBRANCH   5  54
ENDBRANCH   3   5
BRANCH   1  60
ATOM     60  CA  LYS A   4      33.455  44.780  49.610  0.00  0.00    +0.149 C 
BRANCH  60  63
ATOM     61  C   THR A   3      31.635  45.057  51.265  0.00  0.00    +0.243 C 
ATOM     62  O   THR A   3      32.327  44.761  52.229  0.00  0.00    -0.273 OA
ATOM     63  N   LYS A   4      32.069  45.086  50.002  0.00  0.00    -0.297 N 
ATOM     64  H   LYS A   4      31.391  45.338  49.255  0.00  0.00    +0.150 HD
BRANCH  61  65
ATOM     65  CA  THR A   3      30.151  45.411  51.475  0.00  0.00    +0.176 C 
BRANCH  65  67
ATOM     66  C   TYR A   2      28.613  44.670  53.200  0.00  0.00    +0.241 C 
ATOM     67  N   THR A   3      29.759  45.264  52.874  0.00  0.00    -0.295 N 
ATOM     68  H   THR A   3      30.382  45.627  53.624  0.00  0.00    +0.150 HD
ATOM     69  O   TYR A   2      27.863  44.136  52.366  0.00  0.00    -0.273 OA
BRANCH  66  70
ATOM     70  CA  TYR A   2      28.226  44.727  54.672  0.00  0.00    +0.153 C 
BRANCH  70  72
ATOM     71  C   ARG A   1      26.227  46.076  54.757  0.00  0.00    +0.238 C 
ATOM     72  N   TYR A   2      26.776  44.877  54.820  0.00  0.00    -0.297 N 
ATOM     73  H   TYR A   2      26.179  44.039  54.975  0.00  0.00    +0.150 HD
ATOM     74  O   ARG A   1      26.867  47.119  54.755  0.00  0.00    -0.274 OA
BRANCH  71  75
ATOM     75  CA  ARG A   1      24.724  46.112  54.682  0.00  0.00    +0.145 C 
BRANCH  75  76
ATOM     76  N   ARG A   1      24.296  47.490  54.916  0.00  0.00    -0.238 NA
ATOM     77  H   ARG A   1      24.972  48.272  54.798  0.00  0.00    +0.142 HD
ENDBRANCH  75  76
BRANCH  75  78
ATOM     78  CB  ARG A   1      24.268  45.626  53.282  0.00  0.00    +0.030 C 
BRANCH  78  79
ATOM     79  CG  ARG A   1      24.897  46.416  52.052  0.00  0.00    +0.045 C 
BRANCH  79  80
ATOM     80  CD  ARG A   1      24.575  45.744  50.712  0.00  0.00    +0.174 C 
BRANCH  80  81
ATOM     81  NE  ARG A   1      23.123  45.554  50.560  0.00  0.00    -0.265 N 
ATOM     82  HE  ARG A   1      22.546  45.490  51.423  0.00  0.00    +0.259 HD
ATOM     83  CZ  ARG A   1      22.505  45.459  49.388  0.00  0.00    +0.342 C 
ATOM     84  NH2 ARG A   1      21.172  45.255  49.341  0.00  0.00    -0.292 N 
ATOM     85 HH21 ARG A   1      20.627  45.172  50.223  0.00  0.00    +0.255 HD
ATOM     86 HH22 ARG A   1      20.689  45.181  48.423  0.00  0.00    +0.255 HD
ATOM     87  NH1 ARG A   1      23.190  45.552  48.258  0.00  0.00    -0.292 N 
ATOM     88 HH11 ARG A   1      24.219  45.700  48.284  0.00  0.00    +0.255 HD
ATOM     89 HH12 ARG A   1      22.699  45.477  47.344  0.00  0.00    +0.255 HD
ENDBRANCH  80  81
ENDBRANCH  79  80
ENDBRANCH  78  79
ENDBRANCH  75  78
ENDBRANCH  71  75
ENDBRANCH  70  72
BRANCH  70  90
ATOM     90  CB  TYR A   2      28.761  43.521  55.483  0.00  0.00    +0.055 C 
BRANCH  90  91
ATOM     91  CG  TYR A   2      29.696  43.996  56.582  0.00  0.00    -0.020 A 
ATOM     92  CD2 TYR A   2      29.189  44.693  57.685  0.00  0.00    -0.001 A 
ATOM     93  CE2 TYR A   2      30.009  45.176  58.694  0.00  0.00    +0.036 A 
ATOM     94  CZ  TYR A   2      31.380  44.954  58.597  0.00  0.00    +0.134 A 
ATOM     95  CE1 TYR A   2      31.934  44.271  57.515  0.00  0.00    +0.036 A 
ATOM     96  CD1 TYR A   2      31.079  43.778  56.501  0.00  0.00    -0.001 A 
BRANCH  94  97
ATOM     97  OH  TYR A   2      32.200  45.455  59.578  0.00  0.00    -0.506 OA
ATOM     98  HH  TYR A   2      32.707  44.713  59.993  0.00  0.00    +0.292 HD
ENDBRANCH  94  97
ENDBRANCH  90  91
ENDBRANCH  70  90
ENDBRANCH  66  70
ENDBRANCH  65  67
BRANCH  65  99
ATOM     99  CB  THR A   3      29.833  46.878  50.981  0.00  0.00    +0.137 C 
ATOM    100  CG2 THR A   3      30.774  47.895  51.607  0.00  0.00    +0.034 C 
BRANCH  99 101
ATOM    101  OG1 THR A   3      29.936  46.919  49.544  0.00  0.00    -0.382 OA
ATOM    102  HG1 THR A   3      29.287  46.284  49.150  0.00  0.00    +0.210 HD
ENDBRANCH  99 101
ENDBRANCH  65  99
ENDBRANCH  61  65
ENDBRANCH  60  63
BRANCH  60 103
ATOM    103  CB  LYS A   4      33.467  44.279  48.155  0.00  0.00    +0.029 C 
BRANCH 103 104
ATOM    104  CG  LYS A   4      32.922  45.339  47.228  0.00  0.00    +0.000 C 
BRANCH 104 105
ATOM    105  CD  LYS A   4      32.840  44.906  45.794  0.00  0.00    -0.024 C 
BRANCH 105 106
ATOM    106  CE  LYS A   4      31.875  45.824  45.043  0.00  0.00    -0.086 C 
BRANCH 106 107
ATOM    107  NZ  LYS A   4      31.943  45.597  43.575  0.00  0.00    +0.380 N 
ATOM    108  HZ1 LYS A   4      31.691  44.610  43.366  0.00  0.00    -0.089 HD
ATOM    109  HZ2 LYS A   4      32.909  45.788  43.240  0.00  0.00    -0.089 HD
ATOM    110  HZ3 LYS A   4      31.276  46.235  43.096  0.00  0.00    -0.089 HD
ENDBRANCH 106 107
ENDBRANCH 105 106
ENDBRANCH 104 105
ENDBRANCH 103 104
ENDBRANCH  60 103
ENDBRANCH   1  60
TORSDOF 43
REMARK  Name = ../refined-set-2016/2xeg/2xeg_pocket.pdb
REMARK  382 active torsions:
REMARK  status: ('A' for Active; 'I' for Inactive)
REMARK    1  A    between atoms: _1  and  _3
REMARK    2  A    between atoms: _3  and  _4
REMARK    3  A    between atoms: _7  and  _9
REMARK    4  A    between atoms: _9  and  _10
REMARK    5  A    between atoms: _9  and  _12
REMARK    6  A    between atoms: _12  and  _13
REMARK    7  A    between atoms: _19  and  _21
REMARK    8  A    between atoms: _21  and  _22
REMARK    9  A    between atoms: _21  and  _24
REMARK   10  A    between atoms: _24  and  _25
REMARK   11  A    between atoms: _30  and  _31
REMARK   12  A    between atoms: _33  and  _35
REMARK   13  A    between atoms: _35  and  _36
REMARK   14  A    between atoms: _38  and  _40
REMARK   15  A    between atoms: _40  and  _41
REMARK   16  A    between atoms: _40  and  _43
REMARK   17  A    between atoms: _43  and  _44
REMARK   18  A    between atoms: _44  and  _45
REMARK   19  A    between atoms: _45  and  _46
REMARK   20  A    between atoms: _46  and  _47
REMARK   21  A    between atoms: _51  and  _53
REMARK   22  A    between atoms: _53  and  _54
REMARK   23  A    between atoms: _53  and  _56
REMARK   24  A    between atoms: _59  and  _61
REMARK   25  A    between atoms: _61  and  _62
REMARK   26  A    between atoms: _61  and  _64
REMARK   27  A    between atoms: _64  and  _65
REMARK   28  A    between atoms: _71  and  _73
REMARK   29  A    between atoms: _73  and  _74
REMARK   30  A    between atoms: _73  and  _76
REMARK   31  A    between atoms: _76  and  _77
REMARK   32  A    between atoms: _77  and  _78
REMARK   33  A    between atoms: _78  and  _79
REMARK   34  A    between atoms: _88  and  _90
REMARK   35  A    between atoms: _90  and  _91
REMARK   36  A    between atoms: _93  and  _95
REMARK   37  A    between atoms: _95  and  _96
REMARK   38  A    between atoms: _95  and  _98
REMARK   39  A    between atoms: _98  and  _99
REMARK   40  A    between atoms: _99  and  _100
REMARK   41  A    between atoms: _100  and  _101
REMARK   42  A    between atoms: _101  and  _102
REMARK   43  A    between atoms: _106  and  _108
REMARK   44  A    between atoms: _108  and  _109
REMARK   45  A    between atoms: _108  and  _111
REMARK   46  A    between atoms: _111  and  _112
REMARK   47  A    between atoms: _115  and  _117
REMARK   48  A    between atoms: _117  and  _118
REMARK   49  A    between atoms: _117  and  _120
REMARK   50  A    between atoms: _120  and  _121
REMARK   51  A    between atoms: _126  and  _127
REMARK   52  A    between atoms: _129  and  _131
REMARK   53  A    between atoms: _131  and  _132
REMARK   54  A    between atoms: _131  and  _134
REMARK   55  A    between atoms: _134  and  _135
REMARK   56  A    between atoms: _135  and  _136
REMARK   57  A    between atoms: _141  and  _143
REMARK   58  A    between atoms: _143  and  _144
REMARK   59  A    between atoms: _143  and  _146
REMARK   60  A    between atoms: _146  and  _147
REMARK   61  A    between atoms: _147  and  _148
REMARK   62  A    between atoms: _148  and  _149
REMARK   63  A    between atoms: _158  and  _160
REMARK   64  A    between atoms: _160  and  _161
REMARK   65  A    between atoms: _163  and  _165
REMARK   66  A    between atoms: _165  and  _166
REMARK   67  A    between atoms: _165  and  _168
REMARK   68  A    between atoms: _168  and  _169
REMARK   69  A    between atoms: _174  and  _176
REMARK   70  A    between atoms: _176  and  _177
REMARK   71  A    between atoms: _176  and  _179
REMARK   72  A    between atoms: _179  and  _180
REMARK   73  A    between atoms: _183  and  _185
REMARK   74  A    between atoms: _185  and  _186
REMARK   75  A    between atoms: _185  and  _188
REMARK   76  A    between atoms: _188  and  _189
REMARK   77  A    between atoms: _192  and  _194
REMARK   78  A    between atoms: _194  and  _195
REMARK   79  A    between atoms: _194  and  _197
REMARK   80  A    between atoms: _197  and  _198
REMARK   81  A    between atoms: _203  and  _205
REMARK   82  A    between atoms: _205  and  _206
REMARK   83  A    between atoms: _205  and  _208
REMARK   84  A    between atoms: _208  and  _209
REMARK   85  A    between atoms: _212  and  _214
REMARK   86  A    between atoms: _214  and  _215
REMARK   87  A    between atoms: _214  and  _217
REMARK   88  A    between atoms: _217  and  _218
REMARK   89  A    between atoms: _223  and  _225
REMARK   90  A    between atoms: _225  and  _226
REMARK   91  A    between atoms: _228  and  _230
REMARK   92  A    between atoms: _230  and  _231
REMARK   93  A    between atoms: _230  and  _233
REMARK   94  A    between atoms: _233  and  _234
REMARK   95  A    between atoms: _238  and  ZN_939
REMARK   96  A    between atoms: _239  and  _241
REMARK   97  A    between atoms: _241  and  _242
REMARK   98  A    between atoms: _241  and  _244
REMARK   99  A    between atoms: _244  and  _245
REMARK  100  A    between atoms: _248  and  _250
REMARK  101  A    between atoms: _250  and  _251
REMARK  102  A    between atoms: _250  and  _253
REMARK  103  A    between atoms: _253  and  _254
REMARK  104  A    between atoms: _264  and  _266
REMARK  105  A    between atoms: _266  and  _267
REMARK  106  A    between atoms: _266  and  _269
REMARK  107  A    between atoms: _269  and  _270
REMARK  108  A    between atoms: _273  and  _275
REMARK  109  A    between atoms: _275  and  _276
REMARK  110  A    between atoms: _275  and  _278
REMARK  111  A    between atoms: _278  and  _279
REMARK  112  A    between atoms: _279  and  _280
REMARK  113  A    between atoms: _279  and  _281
REMARK  114  A    between atoms: _280  and  ZN_939
REMARK  115  A    between atoms: _281  and  ZN_938
REMARK  116  A    between atoms: _283  and  _284
REMARK  117  A    between atoms: _289  and  _291
REMARK  118  A    between atoms: _291  and  _292
REMARK  119  A    between atoms: _295  and  _297
REMARK  120  A    between atoms: _297  and  _298
REMARK  121  A    between atoms: _297  and  _300
REMARK  122  A    between atoms: _300  and  _301
REMARK  123  A    between atoms: _301  and  _302
REMARK  124  A    between atoms: _305  and  _307
REMARK  125  A    between atoms: _307  and  _308
REMARK  126  A    between atoms: _307  and  _310
REMARK  127  A    between atoms: _310  and  _311
REMARK  128  A    between atoms: _311  and  _312
REMARK  129  A    between atoms: _312  and  _314
REMARK  130  A    between atoms: _314  and  ZN_938
REMARK  131  A    between atoms: _315  and  _317
REMARK  132  A    between atoms: _317  and  _318
REMARK  133  A    between atoms: _317  and  _320
REMARK  134  A    between atoms: _320  and  _321
REMARK  135  A    between atoms: _327  and  _329
REMARK  136  A    between atoms: _329  and  _330
REMARK  137  A    between atoms: _332  and  _334
REMARK  138  A    between atoms: _334  and  _335
REMARK  139  A    between atoms: _334  and  _337
REMARK  140  A    between atoms: _337  and  _338
REMARK  141  A    between atoms: _341  and  _343
REMARK  142  A    between atoms: _343  and  _344
REMARK  143  A    between atoms: _343  and  _346
REMARK  144  A    between atoms: _346  and  _347
REMARK  145  A    between atoms: _350  and  _352
REMARK  146  A    between atoms: _352  and  _353
REMARK  147  A    between atoms: _352  and  _355
REMARK  148  A    between atoms: _355  and  _356
REMARK  149  A    between atoms: _361  and  _363
REMARK  150  A    between atoms: _363  and  _364
REMARK  151  A    between atoms: _363  and  _366
REMARK  152  A    between atoms: _366  and  _367
REMARK  153  A    between atoms: _367  and  _369
REMARK  154  A    between atoms: _369  and  ZN_939
REMARK  155  A    between atoms: _370  and  _372
REMARK  156  A    between atoms: _372  and  _373
REMARK  157  A    between atoms: _372  and  _375
REMARK  158  A    between atoms: _375  and  _376
REMARK  159  A    between atoms: _378  and  _380
REMARK  160  A    between atoms: _380  and  _381
REMARK  161  A    between atoms: _380  and  _383
REMARK  162  A    between atoms: _383  and  _384
REMARK  163  A    between atoms: _386  and  _388
REMARK  164  A    between atoms: _388  and  _389
REMARK  165  A    between atoms: _388  and  _391
REMARK  166  A    between atoms: _391  and  _392
REMARK  167  A    between atoms: _395  and  _397
REMARK  168  A    between atoms: _397  and  _398
REMARK  169  A    between atoms: _397  and  _400
REMARK  170  A    between atoms: _400  and  _401
REMARK  171  A    between atoms: _401  and  _402
REMARK  172  A    between atoms: _405  and  _407
REMARK  173  A    between atoms: _407  and  _408
REMARK  174  A    between atoms: _407  and  _410
REMARK  175  A    between atoms: _410  and  _411
REMARK  176  A    between atoms: _416  and  _417
REMARK  177  A    between atoms: _419  and  _421
REMARK  178  A    between atoms: _421  and  _422
REMARK  179  A    between atoms: _421  and  _424
REMARK  180  A    between atoms: _424  and  _425
REMARK  181  A    between atoms: _428  and  _430
REMARK  182  A    between atoms: _430  and  _431
REMARK  183  A    between atoms: _430  and  _433
REMARK  184  A    between atoms: _433  and  _434
REMARK  185  A    between atoms: _437  and  _439
REMARK  186  A    between atoms: _439  and  _440
REMARK  187  A    between atoms: _439  and  _442
REMARK  188  A    between atoms: _442  and  _443
REMARK  189  A    between atoms: _443  and  _444
REMARK  190  A    between atoms: _444  and  _445
REMARK  191  A    between atoms: _454  and  _456
REMARK  192  A    between atoms: _456  and  _457
REMARK  193  A    between atoms: _456  and  _459
REMARK  194  A    between atoms: _462  and  _464
REMARK  195  A    between atoms: _464  and  _465
REMARK  196  A    between atoms: _464  and  _467
REMARK  197  A    between atoms: _467  and  _468
REMARK  198  A    between atoms: _471  and  _473
REMARK  199  A    between atoms: _473  and  _474
REMARK  200  A    between atoms: _473  and  _476
REMARK  201  A    between atoms: _476  and  _477
REMARK  202  A    between atoms: _487  and  _489
REMARK  203  A    between atoms: _489  and  _490
REMARK  204  A    between atoms: _489  and  _492
REMARK  205  A    between atoms: _492  and  _493
REMARK  206  A    between atoms: _493  and  _494
REMARK  207  A    between atoms: _494  and  _495
REMARK  208  A    between atoms: _495  and  _496
REMARK  209  A    between atoms: _500  and  _502
REMARK  210  A    between atoms: _502  and  _503
REMARK  211  A    between atoms: _502  and  _505
REMARK  212  A    between atoms: _505  and  _506
REMARK  213  A    between atoms: _509  and  _510
REMARK  214  A    between atoms: _516  and  _517
REMARK  215  A    between atoms: _522  and  _524
REMARK  216  A    between atoms: _524  and  _525
REMARK  217  A    between atoms: _524  and  _527
REMARK  218  A    between atoms: _527  and  _528
REMARK  219  A    between atoms: _528  and  _529
REMARK  220  A    between atoms: _529  and  _530
REMARK  221  A    between atoms: _539  and  _541
REMARK  222  A    between atoms: _541  and  _542
REMARK  223  A    between atoms: _541  and  _544
REMARK  224  A    between atoms: _544  and  _545
REMARK  225  A    between atoms: _548  and  _550
REMARK  226  A    between atoms: _550  and  _551
REMARK  227  A    between atoms: _550  and  _553
REMARK  228  A    between atoms: _553  and  _554
REMARK  229  A    between atoms: _556  and  _558
REMARK  230  A    between atoms: _558  and  _559
REMARK  231  A    between atoms: _558  and  _561
REMARK  232  A    between atoms: _561  and  _562
REMARK  233  A    between atoms: _562  and  _563
REMARK  234  A    between atoms: _563  and  _564
REMARK  235  A    between atoms: _564  and  _565
REMARK  236  A    between atoms: _569  and  _571
REMARK  237  A    between atoms: _571  and  _572
REMARK  238  A    between atoms: _571  and  _574
REMARK  239  A    between atoms: _574  and  _575
REMARK  240  A    between atoms: _578  and  _580
REMARK  241  A    between atoms: _580  and  _581
REMARK  242  A    between atoms: _583  and  _585
REMARK  243  A    between atoms: _585  and  _586
REMARK  244  A    between atoms: _585  and  _588
REMARK  245  A    between atoms: _588  and  _589
REMARK  246  A    between atoms: _591  and  _593
REMARK  247  A    between atoms: _593  and  _594
REMARK  248  A    between atoms: _596  and  _598
REMARK  249  A    between atoms: _598  and  _599
REMARK  250  A    between atoms: _598  and  _601
REMARK  251  A    between atoms: _601  and  _602
REMARK  252  A    between atoms: _607  and  _609
REMARK  253  A    between atoms: _609  and  _610
REMARK  254  A    between atoms: _609  and  _612
REMARK  255  A    between atoms: _612  and  _613
REMARK  256  A    between atoms: _616  and  _618
REMARK  257  A    between atoms: _618  and  _619
REMARK  258  A    between atoms: _618  and  _621
REMARK  259  A    between atoms: _621  and  _622
REMARK  260  A    between atoms: _628  and  _630
REMARK  261  A    between atoms: _630  and  _631
REMARK  262  A    between atoms: _630  and  _633
REMARK  263  A    between atoms: _633  and  _634
REMARK  264  A    between atoms: _634  and  _635
REMARK  265  A    between atoms: _638  and  _640
REMARK  266  A    between atoms: _640  and  _641
REMARK  267  A    between atoms: _640  and  _643
REMARK  268  A    between atoms: _643  and  _644
REMARK  269  A    between atoms: _644  and  _645
REMARK  270  A    between atoms: _645  and  _646
REMARK  271  A    between atoms: _655  and  _657
REMARK  272  A    between atoms: _657  and  _658
REMARK  273  A    between atoms: _657  and  _660
REMARK  274  A    between atoms: _660  and  _661
REMARK  275  A    between atoms: _661  and  _662
REMARK  276  A    between atoms: _662  and  _663
REMARK  277  A    between atoms: _672  and  _674
REMARK  278  A    between atoms: _674  and  _675
REMARK  279  A    between atoms: _674  and  _677
REMARK  280  A    between atoms: _677  and  _678
REMARK  281  A    between atoms: _683  and  _684
REMARK  282  A    between atoms: _686  and  _688
REMARK  283  A    between atoms: _688  and  _689
REMARK  284  A    between atoms: _688  and  _691
REMARK  285  A    between atoms: _691  and  _692
REMARK  286  A    between atoms: _695  and  _697
REMARK  287  A    between atoms: _697  and  _698
REMARK  288  A    between atoms: _697  and  _700
REMARK  289  A    between atoms: _700  and  _701
REMARK  290  A    between atoms: _701  and  _702
REMARK  291  A    between atoms: _702  and  _703
REMARK  292  A    between atoms: _703  and  _704
REMARK  293  A    between atoms: _708  and  _710
REMARK  294  A    between atoms: _710  and  _711
REMARK  295  A    between atoms: _710  and  _713
REMARK  296  A    between atoms: _713  and  _714
REMARK  297  A    between atoms: _719  and  _721
REMARK  298  A    between atoms: _721  and  _722
REMARK  299  A    between atoms: _721  and  _724
REMARK  300  A    between atoms: _724  and  _725
REMARK  301  A    between atoms: _735  and  _737
REMARK  302  A    between atoms: _737  and  _738
REMARK  303  A    between atoms: _737  and  _740
REMARK  304  A    between atoms: _740  and  _741
REMARK  305  A    between atoms: _741  and  _742
REMARK  306  A    between atoms: _745  and  _747
REMARK  307  A    between atoms: _747  and  _748
REMARK  308  A    between atoms: _747  and  _750
REMARK  309  A    between atoms: _750  and  _751
REMARK  310  A    between atoms: _754  and  _756
REMARK  311  A    between atoms: _756  and  _757
REMARK  312  A    between atoms: _756  and  _759
REMARK  313  A    between atoms: _759  and  _760
REMARK  314  A    between atoms: _765  and  _767
REMARK  315  A    between atoms: _767  and  _768
REMARK  316  A    between atoms: _767  and  _770
REMARK  317  A    between atoms: _770  and  _771
REMARK  318  A    between atoms: _777  and  _779
REMARK  319  A    between atoms: _779  and  _780
REMARK  320  A    between atoms: _779  and  _782
REMARK  321  A    between atoms: _782  and  _783
REMARK  322  A    between atoms: _785  and  _787
REMARK  323  A    between atoms: _787  and  _788
REMARK  324  A    between atoms: _790  and  _792
REMARK  325  A    between atoms: _792  and  _793
REMARK  326  A    between atoms: _792  and  _795
REMARK  327  A    between atoms: _795  and  _796
REMARK  328  A    between atoms: _801  and  _802
REMARK  329  A    between atoms: _804  and  _806
REMARK  330  A    between atoms: _806  and  _807
REMARK  331  A    between atoms: _806  and  _809
REMARK  332  A    between atoms: _809  and  _810
REMARK  333  A    between atoms: _815  and  _816
REMARK  334  A    between atoms: _818  and  _820
REMARK  335  A    between atoms: _820  and  _821
REMARK  336  A    between atoms: _820  and  _823
REMARK  337  A    between atoms: _823  and  _824
REMARK  338  A    between atoms: _828  and  ZN_938
REMARK  339  A    between atoms: _829  and  _831
REMARK  340  A    between atoms: _831  and  _832
REMARK  341  A    between atoms: _831  and  _834
REMARK  342  A    between atoms: _834  and  _835
REMARK  343  A    between atoms: _835  and  _836
REMARK  344  A    between atoms: _839  and  _841
REMARK  345  A    between atoms: _841  and  _842
REMARK  346  A    between atoms: _841  and  _844
REMARK  347  A    between atoms: _844  and  _845
REMARK  348  A    between atoms: _845  and  _846
REMARK  349  A    between atoms: _846  and  _847
REMARK  350  A    between atoms: _856  and  _858
REMARK  351  A    between atoms: _858  and  _859
REMARK  352  A    between atoms: _858  and  _861
REMARK  353  A    between atoms: _861  and  _862
REMARK  354  A    between atoms: _867  and  _868
REMARK  355  A    between atoms: _870  and  _872
REMARK  356  A    between atoms: _872  and  _873
REMARK  357  A    between atoms: _872  and  _875
REMARK  358  A    between atoms: _875  and  _876
REMARK  359  A    between atoms: _878  and  _880
REMARK  360  A    between atoms: _880  and  _881
REMARK  361  A    between atoms: _880  and  _883
REMARK  362  A    between atoms: _883  and  _884
REMARK  363  A    between atoms: _889  and  _891
REMARK  364  A    between atoms: _891  and  _892
REMARK  365  A    between atoms: _891  and  _894
REMARK  366  A    between atoms: _894  and  _895
REMARK  367  A    between atoms: _900  and  _902
REMARK  368  A    between atoms: _902  and  _903
REMARK  369  A    between atoms: _902  and  _905
REMARK  370  A    between atoms: _905  and  _906
REMARK  371  A    between atoms: _906  and  _907
REMARK  372  A    between atoms: _907  and  _908
REMARK  373  A    between atoms: _908  and  _909
REMARK  374  A    between atoms: _913  and  _915
REMARK  375  A    between atoms: _915  and  _916
REMARK  376  A    between atoms: _915  and  _918
REMARK  377  A    between atoms: _918  and  _919
REMARK  378  A    between atoms: _924  and  _925
REMARK  379  A    between atoms: _927  and  _929
REMARK  380  A    between atoms: _929  and  _930
REMARK  381  A    between atoms: _933  and  _935
REMARK  382  A    between atoms: _935  and  _936
REMARK                            x       y       z     vdW  Elec       q    Type
REMARK                         _______ _______ _______ _____ _____    ______ ____
ROOT
ATOM      1  C   SER A   2      29.109  44.399  40.965  0.00  0.00    +0.243 C 
ATOM      2  N   GLY A   3      28.543  45.020  42.001  0.00  0.00    -0.295 N 
ATOM      3  H   GLY A   3      28.616  46.056  42.061  0.00  0.00    +0.150 HD
ATOM      4  O   SER A   2      28.999  43.178  40.758  0.00  0.00    -0.273 OA
ENDROOT
BRANCH   1   5
ATOM      5  CA  SER A   2      29.885  45.269  39.978  0.00  0.00    +0.178 C 
BRANCH   5   8
ATOM      6  C   PHE A   1      32.328  44.936  40.208  0.00  0.00    +0.239 C 
ATOM      7  O   PHE A   1      32.397  45.741  41.144  0.00  0.00    -0.274 OA
ATOM      8  N   SER A   2      31.177  44.640  39.598  0.00  0.00    -0.295 N 
ATOM      9  H   SER A   2      31.185  43.942  38.827  0.00  0.00    +0.150 HD
BRANCH   6  10
ATOM     10  CA  PHE A   1      33.585  44.217  39.676  0.00  0.00    +0.149 C 
BRANCH  10  11
ATOM     11  N   PHE A   1      34.837  44.849  40.098  0.00  0.00    -0.238 NA
ATOM     12  H   PHE A   1      35.435  44.377  40.806  0.00  0.00    +0.142 HD
ENDBRANCH  10  11
BRANCH  10  13
ATOM     13  CB  PHE A   1      33.592  42.725  40.034  0.00  0.00    +0.053 C 
BRANCH  13  14
ATOM     14  CG  PHE A   1      33.704  42.439  41.507  0.00  0.00    -0.020 A 
ATOM     15  CD2 PHE A   1      32.564  42.390  42.315  0.00  0.00    -0.004 A 
ATOM     16  CE2 PHE A   1      32.659  42.112  43.695  0.00  0.00    -0.000 A 
ATOM     17  CZ  PHE A   1      33.920  41.875  44.266  0.00  0.00    -0.000 A 
ATOM     18  CE1 PHE A   1      35.065  41.917  43.460  0.00  0.00    -0.000 A 
ATOM     19  CD1 PHE A   1      34.948  42.191  42.084  0.00  0.00    -0.004 A 
ENDBRANCH  13  14
ENDBRANCH  10  13
ENDBRANCH   6  10
ENDBRANCH   5   8
BRANCH   5  20
ATOM     20  CB  SER A   2      29.003  45.411  38.738  0.00  0.00    +0.166 C 
BRANCH  20  21
ATOM     21  OG  SER A   2      29.762  45.135  37.582  0.00  0.00    -0.380 OA
ATOM     22  H   SER A   2      30.517  45.773  37.524  0.00  0.00    +0.211 HD
ENDBRANCH  20  21
ENDBRANCH   5  20
ENDBRANCH   1   5
BRANCH   2  23
ATOM     23  CA  GLY A   3      27.816  44.298  43.069  0.00  0.00    +0.176 C 
BRANCH  23  24
ATOM     24  C   GLY A   3      28.631  43.095  43.542  0.00  0.00    +0.243 C 
ATOM     25  O   GLY A   3      29.835  43.220  43.788  0.00  0.00    -0.273 OA
ATOM     26  N   TYR A   4      28.004  41.921  43.630  0.00  0.00    -0.298 N 
ATOM     27  H   TYR A   4      26.969  41.882  43.540  0.00  0.00    +0.150 HD
BRANCH  26  28
ATOM     28  CA  TYR A   4      28.760  40.684  43.853  0.00  0.00    +0.141 C 
BRANCH  28  29
ATOM     29  C   TYR A   4      28.596  39.773  42.613  0.00  0.00    +0.227 C 
ATOM     30  O   TYR A   4      27.547  39.804  41.911  0.00  0.00    -0.286 OA
ENDBRANCH  28  29
BRANCH  28  31
ATOM     31  CB  TYR A   4      28.320  39.971  45.134  0.00  0.00    +0.054 C 
BRANCH  31  32
ATOM     32  CG  TYR A   4      26.848  39.676  45.200  0.00  0.00    -0.020 A 
ATOM     33  CD2 TYR A   4      25.961  40.674  45.558  0.00  0.00    -0.001 A 
ATOM     34  CE2 TYR A   4      24.587  40.394  45.593  0.00  0.00    +0.036 A 
ATOM     35  CZ  TYR A   4      24.093  39.145  45.262  0.00  0.00    +0.134 A 
ATOM     36  CE1 TYR A   4      24.956  38.121  44.913  0.00  0.00    +0.036 A 
ATOM     37  CD1 TYR A   4      26.341  38.412  44.895  0.00  0.00    -0.001 A 
BRANCH  35  38
ATOM     38  OH  TYR A   4      22.737  38.892  45.303  0.00  0.00    -0.506 OA
ATOM     39  HH  TYR A   4      22.569  37.953  45.037  0.00  0.00    +0.292 HD
ENDBRANCH  35  38
ENDBRANCH  31  32
ENDBRANCH  28  31
ENDBRANCH  26  28
ENDBRANCH  23  24
ENDBRANCH   2  23
TORSDOF 15
REMARK  Name = ../refined-set-2016/2xeg/2xeg_pocket.pdb
REMARK  382 active torsions:
REMARK  status: ('A' for Active; 'I' for Inactive)
REMARK    1  A    between atoms: _1  and  _3
REMARK    2  A    between atoms: _3  and  _4
REMARK    3  A    between atoms: _7  and  _9
REMARK    4  A    between atoms: _9  and  _10
REMARK    5  A    between atoms: _9  and  _12
REMARK    6  A    between atoms: _12  and  _13
REMARK    7  A    between atoms: _19  and  _21
REMARK    8  A    between atoms: _21  and  _22
REMARK    9  A    between atoms: _21  and  _24
REMARK   10  A    between atoms: _24  and  _25
REMARK   11  A    between atoms: _30  and  _31
REMARK   12  A    between atoms: _33  and  _35
REMARK   13  A    between atoms: _35  and  _36
REMARK   14  A    between atoms: _38  and  _40
REMARK   15  A    between atoms: _40  and  _41
REMARK   16  A    between atoms: _40  and  _43
REMARK   17  A    between atoms: _43  and  _44
REMARK   18  A    between atoms: _44  and  _45
REMARK   19  A    between atoms: _45  and  _46
REMARK   20  A    between atoms: _46  and  _47
REMARK   21  A    between atoms: _51  and  _53
REMARK   22  A    between atoms: _53  and  _54
REMARK   23  A    between atoms: _53  and  _56
REMARK   24  A    between atoms: _59  and  _61
REMARK   25  A    between atoms: _61  and  _62
REMARK   26  A    between atoms: _61  and  _64
REMARK   27  A    between atoms: _64  and  _65
REMARK   28  A    between atoms: _71  and  _73
REMARK   29  A    between atoms: _73  and  _74
REMARK   30  A    between atoms: _73  and  _76
REMARK   31  A    between atoms: _76  and  _77
REMARK   32  A    between atoms: _77  and  _78
REMARK   33  A    between atoms: _78  and  _79
REMARK   34  A    between atoms: _88  and  _90
REMARK   35  A    between atoms: _90  and  _91
REMARK   36  A    between atoms: _93  and  _95
REMARK   37  A    between atoms: _95  and  _96
REMARK   38  A    between atoms: _95  and  _98
REMARK   39  A    between atoms: _98  and  _99
REMARK   40  A    between atoms: _99  and  _100
REMARK   41  A    between atoms: _100  and  _101
REMARK   42  A    between atoms: _101  and  _102
REMARK   43  A    between atoms: _106  and  _108
REMARK   44  A    between atoms: _108  and  _109
REMARK   45  A    between atoms: _108  and  _111
REMARK   46  A    between atoms: _111  and  _112
REMARK   47  A    between atoms: _115  and  _117
REMARK   48  A    between atoms: _117  and  _118
REMARK   49  A    between atoms: _117  and  _120
REMARK   50  A    between atoms: _120  and  _121
REMARK   51  A    between atoms: _126  and  _127
REMARK   52  A    between atoms: _129  and  _131
REMARK   53  A    between atoms: _131  and  _132
REMARK   54  A    between atoms: _131  and  _134
REMARK   55  A    between atoms: _134  and  _135
REMARK   56  A    between atoms: _135  and  _136
REMARK   57  A    between atoms: _141  and  _143
REMARK   58  A    between atoms: _143  and  _144
REMARK   59  A    between atoms: _143  and  _146
REMARK   60  A    between atoms: _146  and  _147
REMARK   61  A    between atoms: _147  and  _148
REMARK   62  A    between atoms: _148  and  _149
REMARK   63  A    between atoms: _158  and  _160
REMARK   64  A    between atoms: _160  and  _161
REMARK   65  A    between atoms: _163  and  _165
REMARK   66  A    between atoms: _165  and  _166
REMARK   67  A    between atoms: _165  and  _168
REMARK   68  A    between atoms: _168  and  _169
REMARK   69  A    between atoms: _174  and  _176
REMARK   70  A    between atoms: _176  and  _177
REMARK   71  A    between atoms: _176  and  _179
REMARK   72  A    between atoms: _179  and  _180
REMARK   73  A    between atoms: _183  and  _185
REMARK   74  A    between atoms: _185  and  _186
REMARK   75  A    between atoms: _185  and  _188
REMARK   76  A    between atoms: _188  and  _189
REMARK   77  A    between atoms: _192  and  _194
REMARK   78  A    between atoms: _194  and  _195
REMARK   79  A    between atoms: _194  and  _197
REMARK   80  A    between atoms: _197  and  _198
REMARK   81  A    between atoms: _203  and  _205
REMARK   82  A    between atoms: _205  and  _206
REMARK   83  A    between atoms: _205  and  _208
REMARK   84  A    between atoms: _208  and  _209
REMARK   85  A    between atoms: _212  and  _214
REMARK   86  A    between atoms: _214  and  _215
REMARK   87  A    between atoms: _214  and  _217
REMARK   88  A    between atoms: _217  and  _218
REMARK   89  A    between atoms: _223  and  _225
REMARK   90  A    between atoms: _225  and  _226
REMARK   91  A    between atoms: _228  and  _230
REMARK   92  A    between atoms: _230  and  _231
REMARK   93  A    between atoms: _230  and  _233
REMARK   94  A    between atoms: _233  and  _234
REMARK   95  A    between atoms: _238  and  ZN_939
REMARK   96  A    between atoms: _239  and  _241
REMARK   97  A    between atoms: _241  and  _242
REMARK   98  A    between atoms: _241  and  _244
REMARK   99  A    between atoms: _244  and  _245
REMARK  100  A    between atoms: _248  and  _250
REMARK  101  A    between atoms: _250  and  _251
REMARK  102  A    between atoms: _250  and  _253
REMARK  103  A    between atoms: _253  and  _254
REMARK  104  A    between atoms: _264  and  _266
REMARK  105  A    between atoms: _266  and  _267
REMARK  106  A    between atoms: _266  and  _269
REMARK  107  A    between atoms: _269  and  _270
REMARK  108  A    between atoms: _273  and  _275
REMARK  109  A    between atoms: _275  and  _276
REMARK  110  A    between atoms: _275  and  _278
REMARK  111  A    between atoms: _278  and  _279
REMARK  112  A    between atoms: _279  and  _280
REMARK  113  A    between atoms: _279  and  _281
REMARK  114  A    between atoms: _280  and  ZN_939
REMARK  115  A    between atoms: _281  and  ZN_938
REMARK  116  A    between atoms: _283  and  _284
REMARK  117  A    between atoms: _289  and  _291
REMARK  118  A    between atoms: _291  and  _292
REMARK  119  A    between atoms: _295  and  _297
REMARK  120  A    between atoms: _297  and  _298
REMARK  121  A    between atoms: _297  and  _300
REMARK  122  A    between atoms: _300  and  _301
REMARK  123  A    between atoms: _301  and  _302
REMARK  124  A    between atoms: _305  and  _307
REMARK  125  A    between atoms: _307  and  _308
REMARK  126  A    between atoms: _307  and  _310
REMARK  127  A    between atoms: _310  and  _311
REMARK  128  A    between atoms: _311  and  _312
REMARK  129  A    between atoms: _312  and  _314
REMARK  130  A    between atoms: _314  and  ZN_938
REMARK  131  A    between atoms: _315  and  _317
REMARK  132  A    between atoms: _317  and  _318
REMARK  133  A    between atoms: _317  and  _320
REMARK  134  A    between atoms: _320  and  _321
REMARK  135  A    between atoms: _327  and  _329
REMARK  136  A    between atoms: _329  and  _330
REMARK  137  A    between atoms: _332  and  _334
REMARK  138  A    between atoms: _334  and  _335
REMARK  139  A    between atoms: _334  and  _337
REMARK  140  A    between atoms: _337  and  _338
REMARK  141  A    between atoms: _341  and  _343
REMARK  142  A    between atoms: _343  and  _344
REMARK  143  A    between atoms: _343  and  _346
REMARK  144  A    between atoms: _346  and  _347
REMARK  145  A    between atoms: _350  and  _352
REMARK  146  A    between atoms: _352  and  _353
REMARK  147  A    between atoms: _352  and  _355
REMARK  148  A    between atoms: _355  and  _356
REMARK  149  A    between atoms: _361  and  _363
REMARK  150  A    between atoms: _363  and  _364
REMARK  151  A    between atoms: _363  and  _366
REMARK  152  A    between atoms: _366  and  _367
REMARK  153  A    between atoms: _367  and  _369
REMARK  154  A    between atoms: _369  and  ZN_939
REMARK  155  A    between atoms: _370  and  _372
REMARK  156  A    between atoms: _372  and  _373
REMARK  157  A    between atoms: _372  and  _375
REMARK  158  A    between atoms: _375  and  _376
REMARK  159  A    between atoms: _378  and  _380
REMARK  160  A    between atoms: _380  and  _381
REMARK  161  A    between atoms: _380  and  _383
REMARK  162  A    between atoms: _383  and  _384
REMARK  163  A    between atoms: _386  and  _388
REMARK  164  A    between atoms: _388  and  _389
REMARK  165  A    between atoms: _388  and  _391
REMARK  166  A    between atoms: _391  and  _392
REMARK  167  A    between atoms: _395  and  _397
REMARK  168  A    between atoms: _397  and  _398
REMARK  169  A    between atoms: _397  and  _400
REMARK  170  A    between atoms: _400  and  _401
REMARK  171  A    between atoms: _401  and  _402
REMARK  172  A    between atoms: _405  and  _407
REMARK  173  A    between atoms: _407  and  _408
REMARK  174  A    between atoms: _407  and  _410
REMARK  175  A    between atoms: _410  and  _411
REMARK  176  A    between atoms: _416  and  _417
REMARK  177  A    between atoms: _419  and  _421
REMARK  178  A    between atoms: _421  and  _422
REMARK  179  A    between atoms: _421  and  _424
REMARK  180  A    between atoms: _424  and  _425
REMARK  181  A    between atoms: _428  and  _430
REMARK  182  A    between atoms: _430  and  _431
REMARK  183  A    between atoms: _430  and  _433
REMARK  184  A    between atoms: _433  and  _434
REMARK  185  A    between atoms: _437  and  _439
REMARK  186  A    between atoms: _439  and  _440
REMARK  187  A    between atoms: _439  and  _442
REMARK  188  A    between atoms: _442  and  _443
REMARK  189  A    between atoms: _443  and  _444
REMARK  190  A    between atoms: _444  and  _445
REMARK  191  A    between atoms: _454  and  _456
REMARK  192  A    between atoms: _456  and  _457
REMARK  193  A    between atoms: _456  and  _459
REMARK  194  A    between atoms: _462  and  _464
REMARK  195  A    between atoms: _464  and  _465
REMARK  196  A    between atoms: _464  and  _467
REMARK  197  A    between atoms: _467  and  _468
REMARK  198  A    between atoms: _471  and  _473
REMARK  199  A    between atoms: _473  and  _474
REMARK  200  A    between atoms: _473  and  _476
REMARK  201  A    between atoms: _476  and  _477
REMARK  202  A    between atoms: _487  and  _489
REMARK  203  A    between atoms: _489  and  _490
REMARK  204  A    between atoms: _489  and  _492
REMARK  205  A    between atoms: _492  and  _493
REMARK  206  A    between atoms: _493  and  _494
REMARK  207  A    between atoms: _494  and  _495
REMARK  208  A    between atoms: _495  and  _496
REMARK  209  A    between atoms: _500  and  _502
REMARK  210  A    between atoms: _502  and  _503
REMARK  211  A    between atoms: _502  and  _505
REMARK  212  A    between atoms: _505  and  _506
REMARK  213  A    between atoms: _509  and  _510
REMARK  214  A    between atoms: _516  and  _517
REMARK  215  A    between atoms: _522  and  _524
REMARK  216  A    between atoms: _524  and  _525
REMARK  217  A    between atoms: _524  and  _527
REMARK  218  A    between atoms: _527  and  _528
REMARK  219  A    between atoms: _528  and  _529
REMARK  220  A    between atoms: _529  and  _530
REMARK  221  A    between atoms: _539  and  _541
REMARK  222  A    between atoms: _541  and  _542
REMARK  223  A    between atoms: _541  and  _544
REMARK  224  A    between atoms: _544  and  _545
REMARK  225  A    between atoms: _548  and  _550
REMARK  226  A    between atoms: _550  and  _551
REMARK  227  A    between atoms: _550  and  _553
REMARK  228  A    between atoms: _553  and  _554
REMARK  229  A    between atoms: _556  and  _558
REMARK  230  A    between atoms: _558  and  _559
REMARK  231  A    between atoms: _558  and  _561
REMARK  232  A    between atoms: _561  and  _562
REMARK  233  A    between atoms: _562  and  _563
REMARK  234  A    between atoms: _563  and  _564
REMARK  235  A    between atoms: _564  and  _565
REMARK  236  A    between atoms: _569  and  _571
REMARK  237  A    between atoms: _571  and  _572
REMARK  238  A    between atoms: _571  and  _574
REMARK  239  A    between atoms: _574  and  _575
REMARK  240  A    between atoms: _578  and  _580
REMARK  241  A    between atoms: _580  and  _581
REMARK  242  A    between atoms: _583  and  _585
REMARK  243  A    between atoms: _585  and  _586
REMARK  244  A    between atoms: _585  and  _588
REMARK  245  A    between atoms: _588  and  _589
REMARK  246  A    between atoms: _591  and  _593
REMARK  247  A    between atoms: _593  and  _594
REMARK  248  A    between atoms: _596  and  _598
REMARK  249  A    between atoms: _598  and  _599
REMARK  250  A    between atoms: _598  and  _601
REMARK  251  A    between atoms: _601  and  _602
REMARK  252  A    between atoms: _607  and  _609
REMARK  253  A    between atoms: _609  and  _610
REMARK  254  A    between atoms: _609  and  _612
REMARK  255  A    between atoms: _612  and  _613
REMARK  256  A    between atoms: _616  and  _618
REMARK  257  A    between atoms: _618  and  _619
REMARK  258  A    between atoms: _618  and  _621
REMARK  259  A    between atoms: _621  and  _622
REMARK  260  A    between atoms: _628  and  _630
REMARK  261  A    between atoms: _630  and  _631
REMARK  262  A    between atoms: _630  and  _633
REMARK  263  A    between atoms: _633  and  _634
REMARK  264  A    between atoms: _634  and  _635
REMARK  265  A    between atoms: _638  and  _640
REMARK  266  A    between atoms: _640  and  _641
REMARK  267  A    between atoms: _640  and  _643
REMARK  268  A    between atoms: _643  and  _644
REMARK  269  A    between atoms: _644  and  _645
REMARK  270  A    between atoms: _645  and  _646
REMARK  271  A    between atoms: _655  and  _657
REMARK  272  A    between atoms: _657  and  _658
REMARK  273  A    between atoms: _657  and  _660
REMARK  274  A    between atoms: _660  and  _661
REMARK  275  A    between atoms: _661  and  _662
REMARK  276  A    between atoms: _662  and  _663
REMARK  277  A    between atoms: _672  and  _674
REMARK  278  A    between atoms: _674  and  _675
REMARK  279  A    between atoms: _674  and  _677
REMARK  280  A    between atoms: _677  and  _678
REMARK  281  A    between atoms: _683  and  _684
REMARK  282  A    between atoms: _686  and  _688
REMARK  283  A    between atoms: _688  and  _689
REMARK  284  A    between atoms: _688  and  _691
REMARK  285  A    between atoms: _691  and  _692
REMARK  286  A    between atoms: _695  and  _697
REMARK  287  A    between atoms: _697  and  _698
REMARK  288  A    between atoms: _697  and  _700
REMARK  289  A    between atoms: _700  and  _701
REMARK  290  A    between atoms: _701  and  _702
REMARK  291  A    between atoms: _702  and  _703
REMARK  292  A    between atoms: _703  and  _704
REMARK  293  A    between atoms: _708  and  _710
REMARK  294  A    between atoms: _710  and  _711
REMARK  295  A    between atoms: _710  and  _713
REMARK  296  A    between atoms: _713  and  _714
REMARK  297  A    between atoms: _719  and  _721
REMARK  298  A    between atoms: _721  and  _722
REMARK  299  A    between atoms: _721  and  _724
REMARK  300  A    between atoms: _724  and  _725
REMARK  301  A    between atoms: _735  and  _737
REMARK  302  A    between atoms: _737  and  _738
REMARK  303  A    between atoms: _737  and  _740
REMARK  304  A    between atoms: _740  and  _741
REMARK  305  A    between atoms: _741  and  _742
REMARK  306  A    between atoms: _745  and  _747
REMARK  307  A    between atoms: _747  and  _748
REMARK  308  A    between atoms: _747  and  _750
REMARK  309  A    between atoms: _750  and  _751
REMARK  310  A    between atoms: _754  and  _756
REMARK  311  A    between atoms: _756  and  _757
REMARK  312  A    between atoms: _756  and  _759
REMARK  313  A    between atoms: _759  and  _760
REMARK  314  A    between atoms: _765  and  _767
REMARK  315  A    between atoms: _767  and  _768
REMARK  316  A    between atoms: _767  and  _770
REMARK  317  A    between atoms: _770  and  _771
REMARK  318  A    between atoms: _777  and  _779
REMARK  319  A    between atoms: _779  and  _780
REMARK  320  A    between atoms: _779  and  _782
REMARK  321  A    between atoms: _782  and  _783
REMARK  322  A    between atoms: _785  and  _787
REMARK  323  A    between atoms: _787  and  _788
REMARK  324  A    between atoms: _790  and  _792
REMARK  325  A    between atoms: _792  and  _793
REMARK  326  A    between atoms: _792  and  _795
REMARK  327  A    between atoms: _795  and  _796
REMARK  328  A    between atoms: _801  and  _802
REMARK  329  A    between atoms: _804  and  _806
REMARK  330  A    between atoms: _806  and  _807
REMARK  331  A    between atoms: _806  and  _809
REMARK  332  A    between atoms: _809  and  _810
REMARK  333  A    between atoms: _815  and  _816
REMARK  334  A    between atoms: _818  and  _820
REMARK  335  A    between atoms: _820  and  _821
REMARK  336  A    between atoms: _820  and  _823
REMARK  337  A    between atoms: _823  and  _824
REMARK  338  A    between atoms: _828  and  ZN_938
REMARK  339  A    between atoms: _829  and  _831
REMARK  340  A    between atoms: _831  and  _832
REMARK  341  A    between atoms: _831  and  _834
REMARK  342  A    between atoms: _834  and  _835
REMARK  343  A    between atoms: _835  and  _836
REMARK  344  A    between atoms: _839  and  _841
REMARK  345  A    between atoms: _841  and  _842
REMARK  346  A    between atoms: _841  and  _844
REMARK  347  A    between atoms: _844  and  _845
REMARK  348  A    between atoms: _845  and  _846
REMARK  349  A    between atoms: _846  and  _847
REMARK  350  A    between atoms: _856  and  _858
REMARK  351  A    between atoms: _858  and  _859
REMARK  352  A    between atoms: _858  and  _861
REMARK  353  A    between atoms: _861  and  _862
REMARK  354  A    between atoms: _867  and  _868
REMARK  355  A    between atoms: _870  and  _872
REMARK  356  A    between atoms: _872  and  _873
REMARK  357  A    between atoms: _872  and  _875
REMARK  358  A    between atoms: _875  and  _876
REMARK  359  A    between atoms: _878  and  _880
REMARK  360  A    between atoms: _880  and  _881
REMARK  361  A    between atoms: _880  and  _883
REMARK  362  A    between atoms: _883  and  _884
REMARK  363  A    between atoms: _889  and  _891
REMARK  364  A    between atoms: _891  and  _892
REMARK  365  A    between atoms: _891  and  _894
REMARK  366  A    between atoms: _894  and  _895
REMARK  367  A    between atoms: _900  and  _902
REMARK  368  A    between atoms: _902  and  _903
REMARK  369  A    between atoms: _902  and  _905
REMARK  370  A    between atoms: _905  and  _906
REMARK  371  A    between atoms: _906  and  _907
REMARK  372  A    between atoms: _907  and  _908
REMARK  373  A    between atoms: _908  and  _909
REMARK  374  A    between atoms: _913  and  _915
REMARK  375  A    between atoms: _915  and  _916
REMARK  376  A    between atoms: _915  and  _918
REMARK  377  A    between atoms: _918  and  _919
REMARK  378  A    between atoms: _924  and  _925
REMARK  379  A    between atoms: _927  and  _929
REMARK  380  A    between atoms: _929  and  _930
REMARK  381  A    between atoms: _933  and  _935
REMARK  382  A    between atoms: _935  and  _936
REMARK                            x       y       z     vdW  Elec       q    Type
REMARK                         _______ _______ _______ _____ _____    ______ ____
ROOT
ATOM      1  CA  GLU A   1      23.576  32.300  44.897  0.00  0.00    +0.134 C 
ENDROOT
BRANCH   1   2
ATOM      2  N   GLU A   1      23.764  31.553  43.651  0.00  0.00    -0.239 NA
ATOM      3  H   GLU A   1      23.154  31.761  42.835  0.00  0.00    +0.142 HD
ENDBRANCH   1   2
BRANCH   1   4
ATOM      4  C   GLU A   1      22.825  31.437  45.899  0.00  0.00    +0.224 C 
ATOM      5  O   GLU A   1      21.584  31.399  45.902  0.00  0.00    -0.287 OA
ENDBRANCH   1   4
BRANCH   1   6
ATOM      6  CB  GLU A   1      22.728  33.547  44.536  0.00  0.00    +0.037 C 
BRANCH   6   7
ATOM      7  CG  GLU A   1      23.264  34.765  44.961  0.00  0.00    +0.116 C 
BRANCH   7   8
ATOM      8  CD  GLU A   1      22.114  35.792  45.073  0.00  0.00    +0.365 C 
ATOM      9  OE2 GLU A   1      21.431  35.694  46.068  0.00  0.00    -0.246 OA
ATOM     10  OE1 GLU A   1      21.861  36.568  44.115  0.00  0.00    -0.246 OA
ENDBRANCH   7   8
ENDBRANCH   6   7
ENDBRANCH   1   6
TORSDOF 5
REMARK  Name = ../refined-set-2016/2xeg/2xeg_pocket.pdb
REMARK  382 active torsions:
REMARK  status: ('A' for Active; 'I' for Inactive)
REMARK    1  A    between atoms: _1  and  _3
REMARK    2  A    between atoms: _3  and  _4
REMARK    3  A    between atoms: _7  and  _9
REMARK    4  A    between atoms: _9  and  _10
REMARK    5  A    between atoms: _9  and  _12
REMARK    6  A    between atoms: _12  and  _13
REMARK    7  A    between atoms: _19  and  _21
REMARK    8  A    between atoms: _21  and  _22
REMARK    9  A    between atoms: _21  and  _24
REMARK   10  A    between atoms: _24  and  _25
REMARK   11  A    between atoms: _30  and  _31
REMARK   12  A    between atoms: _33  and  _35
REMARK   13  A    between atoms: _35  and  _36
REMARK   14  A    between atoms: _38  and  _40
REMARK   15  A    between atoms: _40  and  _41
REMARK   16  A    between atoms: _40  and  _43
REMARK   17  A    between atoms: _43  and  _44
REMARK   18  A    between atoms: _44  and  _45
REMARK   19  A    between atoms: _45  and  _46
REMARK   20  A    between atoms: _46  and  _47
REMARK   21  A    between atoms: _51  and  _53
REMARK   22  A    between atoms: _53  and  _54
REMARK   23  A    between atoms: _53  and  _56
REMARK   24  A    between atoms: _59  and  _61
REMARK   25  A    between atoms: _61  and  _62
REMARK   26  A    between atoms: _61  and  _64
REMARK   27  A    between atoms: _64  and  _65
REMARK   28  A    between atoms: _71  and  _73
REMARK   29  A    between atoms: _73  and  _74
REMARK   30  A    between atoms: _73  and  _76
REMARK   31  A    between atoms: _76  and  _77
REMARK   32  A    between atoms: _77  and  _78
REMARK   33  A    between atoms: _78  and  _79
REMARK   34  A    between atoms: _88  and  _90
REMARK   35  A    between atoms: _90  and  _91
REMARK   36  A    between atoms: _93  and  _95
REMARK   37  A    between atoms: _95  and  _96
REMARK   38  A    between atoms: _95  and  _98
REMARK   39  A    between atoms: _98  and  _99
REMARK   40  A    between atoms: _99  and  _100
REMARK   41  A    between atoms: _100  and  _101
REMARK   42  A    between atoms: _101  and  _102
REMARK   43  A    between atoms: _106  and  _108
REMARK   44  A    between atoms: _108  and  _109
REMARK   45  A    between atoms: _108  and  _111
REMARK   46  A    between atoms: _111  and  _112
REMARK   47  A    between atoms: _115  and  _117
REMARK   48  A    between atoms: _117  and  _118
REMARK   49  A    between atoms: _117  and  _120
REMARK   50  A    between atoms: _120  and  _121
REMARK   51  A    between atoms: _126  and  _127
REMARK   52  A    between atoms: _129  and  _131
REMARK   53  A    between atoms: _131  and  _132
REMARK   54  A    between atoms: _131  and  _134
REMARK   55  A    between atoms: _134  and  _135
REMARK   56  A    between atoms: _135  and  _136
REMARK   57  A    between atoms: _141  and  _143
REMARK   58  A    between atoms: _143  and  _144
REMARK   59  A    between atoms: _143  and  _146
REMARK   60  A    between atoms: _146  and  _147
REMARK   61  A    between atoms: _147  and  _148
REMARK   62  A    between atoms: _148  and  _149
REMARK   63  A    between atoms: _158  and  _160
REMARK   64  A    between atoms: _160  and  _161
REMARK   65  A    between atoms: _163  and  _165
REMARK   66  A    between atoms: _165  and  _166
REMARK   67  A    between atoms: _165  and  _168
REMARK   68  A    between atoms: _168  and  _169
REMARK   69  A    between atoms: _174  and  _176
REMARK   70  A    between atoms: _176  and  _177
REMARK   71  A    between atoms: _176  and  _179
REMARK   72  A    between atoms: _179  and  _180
REMARK   73  A    between atoms: _183  and  _185
REMARK   74  A    between atoms: _185  and  _186
REMARK   75  A    between atoms: _185  and  _188
REMARK   76  A    between atoms: _188  and  _189
REMARK   77  A    between atoms: _192  and  _194
REMARK   78  A    between atoms: _194  and  _195
REMARK   79  A    between atoms: _194  and  _197
REMARK   80  A    between atoms: _197  and  _198
REMARK   81  A    between atoms: _203  and  _205
REMARK   82  A    between atoms: _205  and  _206
REMARK   83  A    between atoms: _205  and  _208
REMARK   84  A    between atoms: _208  and  _209
REMARK   85  A    between atoms: _212  and  _214
REMARK   86  A    between atoms: _214  and  _215
REMARK   87  A    between atoms: _214  and  _217
REMARK   88  A    between atoms: _217  and  _218
REMARK   89  A    between atoms: _223  and  _225
REMARK   90  A    between atoms: _225  and  _226
REMARK   91  A    between atoms: _228  and  _230
REMARK   92  A    between atoms: _230  and  _231
REMARK   93  A    between atoms: _230  and  _233
REMARK   94  A    between atoms: _233  and  _234
REMARK   95  A    between atoms: _238  and  ZN_939
REMARK   96  A    between atoms: _239  and  _241
REMARK   97  A    between atoms: _241  and  _242
REMARK   98  A    between atoms: _241  and  _244
REMARK   99  A    between atoms: _244  and  _245
REMARK  100  A    between atoms: _248  and  _250
REMARK  101  A    between atoms: _250  and  _251
REMARK  102  A    between atoms: _250  and  _253
REMARK  103  A    between atoms: _253  and  _254
REMARK  104  A    between atoms: _264  and  _266
REMARK  105  A    between atoms: _266  and  _267
REMARK  106  A    between atoms: _266  and  _269
REMARK  107  A    between atoms: _269  and  _270
REMARK  108  A    between atoms: _273  and  _275
REMARK  109  A    between atoms: _275  and  _276
REMARK  110  A    between atoms: _275  and  _278
REMARK  111  A    between atoms: _278  and  _279
REMARK  112  A    between atoms: _279  and  _280
REMARK  113  A    between atoms: _279  and  _281
REMARK  114  A    between atoms: _280  and  ZN_939
REMARK  115  A    between atoms: _281  and  ZN_938
REMARK  116  A    between atoms: _283  and  _284
REMARK  117  A    between atoms: _289  and  _291
REMARK  118  A    between atoms: _291  and  _292
REMARK  119  A    between atoms: _295  and  _297
REMARK  120  A    between atoms: _297  and  _298
REMARK  121  A    between atoms: _297  and  _300
REMARK  122  A    between atoms: _300  and  _301
REMARK  123  A    between atoms: _301  and  _302
REMARK  124  A    between atoms: _305  and  _307
REMARK  125  A    between atoms: _307  and  _308
REMARK  126  A    between atoms: _307  and  _310
REMARK  127  A    between atoms: _310  and  _311
REMARK  128  A    between atoms: _311  and  _312
REMARK  129  A    between atoms: _312  and  _314
REMARK  130  A    between atoms: _314  and  ZN_938
REMARK  131  A    between atoms: _315  and  _317
REMARK  132  A    between atoms: _317  and  _318
REMARK  133  A    between atoms: _317  and  _320
REMARK  134  A    between atoms: _320  and  _321
REMARK  135  A    between atoms: _327  and  _329
REMARK  136  A    between atoms: _329  and  _330
REMARK  137  A    between atoms: _332  and  _334
REMARK  138  A    between atoms: _334  and  _335
REMARK  139  A    between atoms: _334  and  _337
REMARK  140  A    between atoms: _337  and  _338
REMARK  141  A    between atoms: _341  and  _343
REMARK  142  A    between atoms: _343  and  _344
REMARK  143  A    between atoms: _343  and  _346
REMARK  144  A    between atoms: _346  and  _347
REMARK  145  A    between atoms: _350  and  _352
REMARK  146  A    between atoms: _352  and  _353
REMARK  147  A    between atoms: _352  and  _355
REMARK  148  A    between atoms: _355  and  _356
REMARK  149  A    between atoms: _361  and  _363
REMARK  150  A    between atoms: _363  and  _364
REMARK  151  A    between atoms: _363  and  _366
REMARK  152  A    between atoms: _366  and  _367
REMARK  153  A    between atoms: _367  and  _369
REMARK  154  A    between atoms: _369  and  ZN_939
REMARK  155  A    between atoms: _370  and  _372
REMARK  156  A    between atoms: _372  and  _373
REMARK  157  A    between atoms: _372  and  _375
REMARK  158  A    between atoms: _375  and  _376
REMARK  159  A    between atoms: _378  and  _380
REMARK  160  A    between atoms: _380  and  _381
REMARK  161  A    between atoms: _380  and  _383
REMARK  162  A    between atoms: _383  and  _384
REMARK  163  A    between atoms: _386  and  _388
REMARK  164  A    between atoms: _388  and  _389
REMARK  165  A    between atoms: _388  and  _391
REMARK  166  A    between atoms: _391  and  _392
REMARK  167  A    between atoms: _395  and  _397
REMARK  168  A    between atoms: _397  and  _398
REMARK  169  A    between atoms: _397  and  _400
REMARK  170  A    between atoms: _400  and  _401
REMARK  171  A    between atoms: _401  and  _402
REMARK  172  A    between atoms: _405  and  _407
REMARK  173  A    between atoms: _407  and  _408
REMARK  174  A    between atoms: _407  and  _410
REMARK  175  A    between atoms: _410  and  _411
REMARK  176  A    between atoms: _416  and  _417
REMARK  177  A    between atoms: _419  and  _421
REMARK  178  A    between atoms: _421  and  _422
REMARK  179  A    between atoms: _421  and  _424
REMARK  180  A    between atoms: _424  and  _425
REMARK  181  A    between atoms: _428  and  _430
REMARK  182  A    between atoms: _430  and  _431
REMARK  183  A    between atoms: _430  and  _433
REMARK  184  A    between atoms: _433  and  _434
REMARK  185  A    between atoms: _437  and  _439
REMARK  186  A    between atoms: _439  and  _440
REMARK  187  A    between atoms: _439  and  _442
REMARK  188  A    between atoms: _442  and  _443
REMARK  189  A    between atoms: _443  and  _444
REMARK  190  A    between atoms: _444  and  _445
REMARK  191  A    between atoms: _454  and  _456
REMARK  192  A    between atoms: _456  and  _457
REMARK  193  A    between atoms: _456  and  _459
REMARK  194  A    between atoms: _462  and  _464
REMARK  195  A    between atoms: _464  and  _465
REMARK  196  A    between atoms: _464  and  _467
REMARK  197  A    between atoms: _467  and  _468
REMARK  198  A    between atoms: _471  and  _473
REMARK  199  A    between atoms: _473  and  _474
REMARK  200  A    between atoms: _473  and  _476
REMARK  201  A    between atoms: _476  and  _477
REMARK  202  A    between atoms: _487  and  _489
REMARK  203  A    between atoms: _489  and  _490
REMARK  204  A    between atoms: _489  and  _492
REMARK  205  A    between atoms: _492  and  _493
REMARK  206  A    between atoms: _493  and  _494
REMARK  207  A    between atoms: _494  and  _495
REMARK  208  A    between atoms: _495  and  _496
REMARK  209  A    between atoms: _500  and  _502
REMARK  210  A    between atoms: _502  and  _503
REMARK  211  A    between atoms: _502  and  _505
REMARK  212  A    between atoms: _505  and  _506
REMARK  213  A    between atoms: _509  and  _510
REMARK  214  A    between atoms: _516  and  _517
REMARK  215  A    between atoms: _522  and  _524
REMARK  216  A    between atoms: _524  and  _525
REMARK  217  A    between atoms: _524  and  _527
REMARK  218  A    between atoms: _527  and  _528
REMARK  219  A    between atoms: _528  and  _529
REMARK  220  A    between atoms: _529  and  _530
REMARK  221  A    between atoms: _539  and  _541
REMARK  222  A    between atoms: _541  and  _542
REMARK  223  A    between atoms: _541  and  _544
REMARK  224  A    between atoms: _544  and  _545
REMARK  225  A    between atoms: _548  and  _550
REMARK  226  A    between atoms: _550  and  _551
REMARK  227  A    between atoms: _550  and  _553
REMARK  228  A    between atoms: _553  and  _554
REMARK  229  A    between atoms: _556  and  _558
REMARK  230  A    between atoms: _558  and  _559
REMARK  231  A    between atoms: _558  and  _561
REMARK  232  A    between atoms: _561  and  _562
REMARK  233  A    between atoms: _562  and  _563
REMARK  234  A    between atoms: _563  and  _564
REMARK  235  A    between atoms: _564  and  _565
REMARK  236  A    between atoms: _569  and  _571
REMARK  237  A    between atoms: _571  and  _572
REMARK  238  A    between atoms: _571  and  _574
REMARK  239  A    between atoms: _574  and  _575
REMARK  240  A    between atoms: _578  and  _580
REMARK  241  A    between atoms: _580  and  _581
REMARK  242  A    between atoms: _583  and  _585
REMARK  243  A    between atoms: _585  and  _586
REMARK  244  A    between atoms: _585  and  _588
REMARK  245  A    between atoms: _588  and  _589
REMARK  246  A    between atoms: _591  and  _593
REMARK  247  A    between atoms: _593  and  _594
REMARK  248  A    between atoms: _596  and  _598
REMARK  249  A    between atoms: _598  and  _599
REMARK  250  A    between atoms: _598  and  _601
REMARK  251  A    between atoms: _601  and  _602
REMARK  252  A    between atoms: _607  and  _609
REMARK  253  A    between atoms: _609  and  _610
REMARK  254  A    between atoms: _609  and  _612
REMARK  255  A    between atoms: _612  and  _613
REMARK  256  A    between atoms: _616  and  _618
REMARK  257  A    between atoms: _618  and  _619
REMARK  258  A    between atoms: _618  and  _621
REMARK  259  A    between atoms: _621  and  _622
REMARK  260  A    between atoms: _628  and  _630
REMARK  261  A    between atoms: _630  and  _631
REMARK  262  A    between atoms: _630  and  _633
REMARK  263  A    between atoms: _633  and  _634
REMARK  264  A    between atoms: _634  and  _635
REMARK  265  A    between atoms: _638  and  _640
REMARK  266  A    between atoms: _640  and  _641
REMARK  267  A    between atoms: _640  and  _643
REMARK  268  A    between atoms: _643  and  _644
REMARK  269  A    between atoms: _644  and  _645
REMARK  270  A    between atoms: _645  and  _646
REMARK  271  A    between atoms: _655  and  _657
REMARK  272  A    between atoms: _657  and  _658
REMARK  273  A    between atoms: _657  and  _660
REMARK  274  A    between atoms: _660  and  _661
REMARK  275  A    between atoms: _661  and  _662
REMARK  276  A    between atoms: _662  and  _663
REMARK  277  A    between atoms: _672  and  _674
REMARK  278  A    between atoms: _674  and  _675
REMARK  279  A    between atoms: _674  and  _677
REMARK  280  A    between atoms: _677  and  _678
REMARK  281  A    between atoms: _683  and  _684
REMARK  282  A    between atoms: _686  and  _688
REMARK  283  A    between atoms: _688  and  _689
REMARK  284  A    between atoms: _688  and  _691
REMARK  285  A    between atoms: _691  and  _692
REMARK  286  A    between atoms: _695  and  _697
REMARK  287  A    between atoms: _697  and  _698
REMARK  288  A    between atoms: _697  and  _700
REMARK  289  A    between atoms: _700  and  _701
REMARK  290  A    between atoms: _701  and  _702
REMARK  291  A    between atoms: _702  and  _703
REMARK  292  A    between atoms: _703  and  _704
REMARK  293  A    between atoms: _708  and  _710
REMARK  294  A    between atoms: _710  and  _711
REMARK  295  A    between atoms: _710  and  _713
REMARK  296  A    between atoms: _713  and  _714
REMARK  297  A    between atoms: _719  and  _721
REMARK  298  A    between atoms: _721  and  _722
REMARK  299  A    between atoms: _721  and  _724
REMARK  300  A    between atoms: _724  and  _725
REMARK  301  A    between atoms: _735  and  _737
REMARK  302  A    between atoms: _737  and  _738
REMARK  303  A    between atoms: _737  and  _740
REMARK  304  A    between atoms: _740  and  _741
REMARK  305  A    between atoms: _741  and  _742
REMARK  306  A    between atoms: _745  and  _747
REMARK  307  A    between atoms: _747  and  _748
REMARK  308  A    between atoms: _747  and  _750
REMARK  309  A    between atoms: _750  and  _751
REMARK  310  A    between atoms: _754  and  _756
REMARK  311  A    between atoms: _756  and  _757
REMARK  312  A    between atoms: _756  and  _759
REMARK  313  A    between atoms: _759  and  _760
REMARK  314  A    between atoms: _765  and  _767
REMARK  315  A    between atoms: _767  and  _768
REMARK  316  A    between atoms: _767  and  _770
REMARK  317  A    between atoms: _770  and  _771
REMARK  318  A    between atoms: _777  and  _779
REMARK  319  A    between atoms: _779  and  _780
REMARK  320  A    between atoms: _779  and  _782
REMARK  321  A    between atoms: _782  and  _783
REMARK  322  A    between atoms: _785  and  _787
REMARK  323  A    between atoms: _787  and  _788
REMARK  324  A    between atoms: _790  and  _792
REMARK  325  A    between atoms: _792  and  _793
REMARK  326  A    between atoms: _792  and  _795
REMARK  327  A    between atoms: _795  and  _796
REMARK  328  A    between atoms: _801  and  _802
REMARK  329  A    between atoms: _804  and  _806
REMARK  330  A    between atoms: _806  and  _807
REMARK  331  A    between atoms: _806  and  _809
REMARK  332  A    between atoms: _809  and  _810
REMARK  333  A    between atoms: _815  and  _816
REMARK  334  A    between atoms: _818  and  _820
REMARK  335  A    between atoms: _820  and  _821
REMARK  336  A    between atoms: _820  and  _823
REMARK  337  A    between atoms: _823  and  _824
REMARK  338  A    between atoms: _828  and  ZN_938
REMARK  339  A    between atoms: _829  and  _831
REMARK  340  A    between atoms: _831  and  _832
REMARK  341  A    between atoms: _831  and  _834
REMARK  342  A    between atoms: _834  and  _835
REMARK  343  A    between atoms: _835  and  _836
REMARK  344  A    between atoms: _839  and  _841
REMARK  345  A    between atoms: _841  and  _842
REMARK  346  A    between atoms: _841  and  _844
REMARK  347  A    between atoms: _844  and  _845
REMARK  348  A    between atoms: _845  and  _846
REMARK  349  A    between atoms: _846  and  _847
REMARK  350  A    between atoms: _856  and  _858
REMARK  351  A    between atoms: _858  and  _859
REMARK  352  A    between atoms: _858  and  _861
REMARK  353  A    between atoms: _861  and  _862
REMARK  354  A    between atoms: _867  and  _868
REMARK  355  A    between atoms: _870  and  _872
REMARK  356  A    between atoms: _872  and  _873
REMARK  357  A    between atoms: _872  and  _875
REMARK  358  A    between atoms: _875  and  _876
REMARK  359  A    between atoms: _878  and  _880
REMARK  360  A    between atoms: _880  and  _881
REMARK  361  A    between atoms: _880  and  _883
REMARK  362  A    between atoms: _883  and  _884
REMARK  363  A    between atoms: _889  and  _891
REMARK  364  A    between atoms: _891  and  _892
REMARK  365  A    between atoms: _891  and  _894
REMARK  366  A    between atoms: _894  and  _895
REMARK  367  A    between atoms: _900  and  _902
REMARK  368  A    between atoms: _902  and  _903
REMARK  369  A    between atoms: _902  and  _905
REMARK  370  A    between atoms: _905  and  _906
REMARK  371  A    between atoms: _906  and  _907
REMARK  372  A    between atoms: _907  and  _908
REMARK  373  A    between atoms: _908  and  _909
REMARK  374  A    between atoms: _913  and  _915
REMARK  375  A    between atoms: _915  and  _916
REMARK  376  A    between atoms: _915  and  _918
REMARK  377  A    between atoms: _918  and  _919
REMARK  378  A    between atoms: _924  and  _925
REMARK  379  A    between atoms: _927  and  _929
REMARK  380  A    between atoms: _929  and  _930
REMARK  381  A    between atoms: _933  and  _935
REMARK  382  A    between atoms: _935  and  _936
REMARK                            x       y       z     vdW  Elec       q    Type
REMARK                         _______ _______ _______ _____ _____    ______ ____
ROOT
ATOM      1  NE  ARG A   1      19.890  45.538  56.690  0.00  0.00    -0.265 N 
ATOM      2  HE  ARG A   1      20.491  46.368  56.513  0.00  0.00    +0.259 HD
ATOM      3  CZ  ARG A   1      19.827  44.599  55.738  0.00  0.00    +0.342 C 
ATOM      4  NH2 ARG A   1      19.080  43.505  55.925  0.00  0.00    -0.292 N 
ATOM      5 HH21 ARG A   1      18.548  43.384  56.810  0.00  0.00    +0.255 HD
ATOM      6 HH22 ARG A   1      19.031  42.776  55.185  0.00  0.00    +0.255 HD
ATOM      7  NH1 ARG A   1      20.505  44.753  54.595  0.00  0.00    -0.292 N 
ATOM      8 HH11 ARG A   1      21.083  45.604  54.444  0.00  0.00    +0.255 HD
ATOM      9 HH12 ARG A   1      20.454  44.022  53.857  0.00  0.00    +0.255 HD
ENDROOT
BRANCH   1  10
ATOM     10  CD  ARG A   1      19.170  45.475  57.963  0.00  0.00    +0.174 C 
BRANCH  10  11
ATOM     11  CG  ARG A   1      19.494  46.694  58.815  0.00  0.00    +0.045 C 
BRANCH  11  12
ATOM     12  CB  ARG A   1      18.757  46.632  60.105  0.00  0.00    +0.029 C 
BRANCH  12  13
ATOM     13  CA  ARG A   1      19.172  47.705  61.095  0.00  0.00    +0.133 C 
BRANCH  13  14
ATOM     14  N   ARG A   1      20.588  47.485  61.544  0.00  0.00    -0.239 NA
ATOM     15  H   ARG A   1      21.120  46.641  61.249  0.00  0.00    +0.142 HD
ENDBRANCH  13  14
BRANCH  13  16
ATOM     16  C   ARG A   1      18.208  47.728  62.287  0.00  0.00    +0.224 C 
ATOM     17  O   ARG A   1      17.327  48.593  62.386  0.00  0.00    -0.287 OA
ENDBRANCH  13  16
ENDBRANCH  12  13
ENDBRANCH  11  12
ENDBRANCH  10  11
ENDBRANCH   1  10
TORSDOF 6
REMARK  Name = ../refined-set-2016/2xeg/2xeg_pocket.pdb
REMARK  382 active torsions:
REMARK  status: ('A' for Active; 'I' for Inactive)
REMARK    1  A    between atoms: _1  and  _3
REMARK    2  A    between atoms: _3  and  _4
REMARK    3  A    between atoms: _7  and  _9
REMARK    4  A    between atoms: _9  and  _10
REMARK    5  A    between atoms: _9  and  _12
REMARK    6  A    between atoms: _12  and  _13
REMARK    7  A    between atoms: _19  and  _21
REMARK    8  A    between atoms: _21  and  _22
REMARK    9  A    between atoms: _21  and  _24
REMARK   10  A    between atoms: _24  and  _25
REMARK   11  A    between atoms: _30  and  _31
REMARK   12  A    between atoms: _33  and  _35
REMARK   13  A    between atoms: _35  and  _36
REMARK   14  A    between atoms: _38  and  _40
REMARK   15  A    between atoms: _40  and  _41
REMARK   16  A    between atoms: _40  and  _43
REMARK   17  A    between atoms: _43  and  _44
REMARK   18  A    between atoms: _44  and  _45
REMARK   19  A    between atoms: _45  and  _46
REMARK   20  A    between atoms: _46  and  _47
REMARK   21  A    between atoms: _51  and  _53
REMARK   22  A    between atoms: _53  and  _54
REMARK   23  A    between atoms: _53  and  _56
REMARK   24  A    between atoms: _59  and  _61
REMARK   25  A    between atoms: _61  and  _62
REMARK   26  A    between atoms: _61  and  _64
REMARK   27  A    between atoms: _64  and  _65
REMARK   28  A    between atoms: _71  and  _73
REMARK   29  A    between atoms: _73  and  _74
REMARK   30  A    between atoms: _73  and  _76
REMARK   31  A    between atoms: _76  and  _77
REMARK   32  A    between atoms: _77  and  _78
REMARK   33  A    between atoms: _78  and  _79
REMARK   34  A    between atoms: _88  and  _90
REMARK   35  A    between atoms: _90  and  _91
REMARK   36  A    between atoms: _93  and  _95
REMARK   37  A    between atoms: _95  and  _96
REMARK   38  A    between atoms: _95  and  _98
REMARK   39  A    between atoms: _98  and  _99
REMARK   40  A    between atoms: _99  and  _100
REMARK   41  A    between atoms: _100  and  _101
REMARK   42  A    between atoms: _101  and  _102
REMARK   43  A    between atoms: _106  and  _108
REMARK   44  A    between atoms: _108  and  _109
REMARK   45  A    between atoms: _108  and  _111
REMARK   46  A    between atoms: _111  and  _112
REMARK   47  A    between atoms: _115  and  _117
REMARK   48  A    between atoms: _117  and  _118
REMARK   49  A    between atoms: _117  and  _120
REMARK   50  A    between atoms: _120  and  _121
REMARK   51  A    between atoms: _126  and  _127
REMARK   52  A    between atoms: _129  and  _131
REMARK   53  A    between atoms: _131  and  _132
REMARK   54  A    between atoms: _131  and  _134
REMARK   55  A    between atoms: _134  and  _135
REMARK   56  A    between atoms: _135  and  _136
REMARK   57  A    between atoms: _141  and  _143
REMARK   58  A    between atoms: _143  and  _144
REMARK   59  A    between atoms: _143  and  _146
REMARK   60  A    between atoms: _146  and  _147
REMARK   61  A    between atoms: _147  and  _148
REMARK   62  A    between atoms: _148  and  _149
REMARK   63  A    between atoms: _158  and  _160
REMARK   64  A    between atoms: _160  and  _161
REMARK   65  A    between atoms: _163  and  _165
REMARK   66  A    between atoms: _165  and  _166
REMARK   67  A    between atoms: _165  and  _168
REMARK   68  A    between atoms: _168  and  _169
REMARK   69  A    between atoms: _174  and  _176
REMARK   70  A    between atoms: _176  and  _177
REMARK   71  A    between atoms: _176  and  _179
REMARK   72  A    between atoms: _179  and  _180
REMARK   73  A    between atoms: _183  and  _185
REMARK   74  A    between atoms: _185  and  _186
REMARK   75  A    between atoms: _185  and  _188
REMARK   76  A    between atoms: _188  and  _189
REMARK   77  A    between atoms: _192  and  _194
REMARK   78  A    between atoms: _194  and  _195
REMARK   79  A    between atoms: _194  and  _197
REMARK   80  A    between atoms: _197  and  _198
REMARK   81  A    between atoms: _203  and  _205
REMARK   82  A    between atoms: _205  and  _206
REMARK   83  A    between atoms: _205  and  _208
REMARK   84  A    between atoms: _208  and  _209
REMARK   85  A    between atoms: _212  and  _214
REMARK   86  A    between atoms: _214  and  _215
REMARK   87  A    between atoms: _214  and  _217
REMARK   88  A    between atoms: _217  and  _218
REMARK   89  A    between atoms: _223  and  _225
REMARK   90  A    between atoms: _225  and  _226
REMARK   91  A    between atoms: _228  and  _230
REMARK   92  A    between atoms: _230  and  _231
REMARK   93  A    between atoms: _230  and  _233
REMARK   94  A    between atoms: _233  and  _234
REMARK   95  A    between atoms: _238  and  ZN_939
REMARK   96  A    between atoms: _239  and  _241
REMARK   97  A    between atoms: _241  and  _242
REMARK   98  A    between atoms: _241  and  _244
REMARK   99  A    between atoms: _244  and  _245
REMARK  100  A    between atoms: _248  and  _250
REMARK  101  A    between atoms: _250  and  _251
REMARK  102  A    between atoms: _250  and  _253
REMARK  103  A    between atoms: _253  and  _254
REMARK  104  A    between atoms: _264  and  _266
REMARK  105  A    between atoms: _266  and  _267
REMARK  106  A    between atoms: _266  and  _269
REMARK  107  A    between atoms: _269  and  _270
REMARK  108  A    between atoms: _273  and  _275
REMARK  109  A    between atoms: _275  and  _276
REMARK  110  A    between atoms: _275  and  _278
REMARK  111  A    between atoms: _278  and  _279
REMARK  112  A    between atoms: _279  and  _280
REMARK  113  A    between atoms: _279  and  _281
REMARK  114  A    between atoms: _280  and  ZN_939
REMARK  115  A    between atoms: _281  and  ZN_938
REMARK  116  A    between atoms: _283  and  _284
REMARK  117  A    between atoms: _289  and  _291
REMARK  118  A    between atoms: _291  and  _292
REMARK  119  A    between atoms: _295  and  _297
REMARK  120  A    between atoms: _297  and  _298
REMARK  121  A    between atoms: _297  and  _300
REMARK  122  A    between atoms: _300  and  _301
REMARK  123  A    between atoms: _301  and  _302
REMARK  124  A    between atoms: _305  and  _307
REMARK  125  A    between atoms: _307  and  _308
REMARK  126  A    between atoms: _307  and  _310
REMARK  127  A    between atoms: _310  and  _311
REMARK  128  A    between atoms: _311  and  _312
REMARK  129  A    between atoms: _312  and  _314
REMARK  130  A    between atoms: _314  and  ZN_938
REMARK  131  A    between atoms: _315  and  _317
REMARK  132  A    between atoms: _317  and  _318
REMARK  133  A    between atoms: _317  and  _320
REMARK  134  A    between atoms: _320  and  _321
REMARK  135  A    between atoms: _327  and  _329
REMARK  136  A    between atoms: _329  and  _330
REMARK  137  A    between atoms: _332  and  _334
REMARK  138  A    between atoms: _334  and  _335
REMARK  139  A    between atoms: _334  and  _337
REMARK  140  A    between atoms: _337  and  _338
REMARK  141  A    between atoms: _341  and  _343
REMARK  142  A    between atoms: _343  and  _344
REMARK  143  A    between atoms: _343  and  _346
REMARK  144  A    between atoms: _346  and  _347
REMARK  145  A    between atoms: _350  and  _352
REMARK  146  A    between atoms: _352  and  _353
REMARK  147  A    between atoms: _352  and  _355
REMARK  148  A    between atoms: _355  and  _356
REMARK  149  A    between atoms: _361  and  _363
REMARK  150  A    between atoms: _363  and  _364
REMARK  151  A    between atoms: _363  and  _366
REMARK  152  A    between atoms: _366  and  _367
REMARK  153  A    between atoms: _367  and  _369
REMARK  154  A    between atoms: _369  and  ZN_939
REMARK  155  A    between atoms: _370  and  _372
REMARK  156  A    between atoms: _372  and  _373
REMARK  157  A    between atoms: _372  and  _375
REMARK  158  A    between atoms: _375  and  _376
REMARK  159  A    between atoms: _378  and  _380
REMARK  160  A    between atoms: _380  and  _381
REMARK  161  A    between atoms: _380  and  _383
REMARK  162  A    between atoms: _383  and  _384
REMARK  163  A    between atoms: _386  and  _388
REMARK  164  A    between atoms: _388  and  _389
REMARK  165  A    between atoms: _388  and  _391
REMARK  166  A    between atoms: _391  and  _392
REMARK  167  A    between atoms: _395  and  _397
REMARK  168  A    between atoms: _397  and  _398
REMARK  169  A    between atoms: _397  and  _400
REMARK  170  A    between atoms: _400  and  _401
REMARK  171  A    between atoms: _401  and  _402
REMARK  172  A    between atoms: _405  and  _407
REMARK  173  A    between atoms: _407  and  _408
REMARK  174  A    between atoms: _407  and  _410
REMARK  175  A    between atoms: _410  and  _411
REMARK  176  A    between atoms: _416  and  _417
REMARK  177  A    between atoms: _419  and  _421
REMARK  178  A    between atoms: _421  and  _422
REMARK  179  A    between atoms: _421  and  _424
REMARK  180  A    between atoms: _424  and  _425
REMARK  181  A    between atoms: _428  and  _430
REMARK  182  A    between atoms: _430  and  _431
REMARK  183  A    between atoms: _430  and  _433
REMARK  184  A    between atoms: _433  and  _434
REMARK  185  A    between atoms: _437  and  _439
REMARK  186  A    between atoms: _439  and  _440
REMARK  187  A    between atoms: _439  and  _442
REMARK  188  A    between atoms: _442  and  _443
REMARK  189  A    between atoms: _443  and  _444
REMARK  190  A    between atoms: _444  and  _445
REMARK  191  A    between atoms: _454  and  _456
REMARK  192  A    between atoms: _456  and  _457
REMARK  193  A    between atoms: _456  and  _459
REMARK  194  A    between atoms: _462  and  _464
REMARK  195  A    between atoms: _464  and  _465
REMARK  196  A    between atoms: _464  and  _467
REMARK  197  A    between atoms: _467  and  _468
REMARK  198  A    between atoms: _471  and  _473
REMARK  199  A    between atoms: _473  and  _474
REMARK  200  A    between atoms: _473  and  _476
REMARK  201  A    between atoms: _476  and  _477
REMARK  202  A    between atoms: _487  and  _489
REMARK  203  A    between atoms: _489  and  _490
REMARK  204  A    between atoms: _489  and  _492
REMARK  205  A    between atoms: _492  and  _493
REMARK  206  A    between atoms: _493  and  _494
REMARK  207  A    between atoms: _494  and  _495
REMARK  208  A    between atoms: _495  and  _496
REMARK  209  A    between atoms: _500  and  _502
REMARK  210  A    between atoms: _502  and  _503
REMARK  211  A    between atoms: _502  and  _505
REMARK  212  A    between atoms: _505  and  _506
REMARK  213  A    between atoms: _509  and  _510
REMARK  214  A    between atoms: _516  and  _517
REMARK  215  A    between atoms: _522  and  _524
REMARK  216  A    between atoms: _524  and  _525
REMARK  217  A    between atoms: _524  and  _527
REMARK  218  A    between atoms: _527  and  _528
REMARK  219  A    between atoms: _528  and  _529
REMARK  220  A    between atoms: _529  and  _530
REMARK  221  A    between atoms: _539  and  _541
REMARK  222  A    between atoms: _541  and  _542
REMARK  223  A    between atoms: _541  and  _544
REMARK  224  A    between atoms: _544  and  _545
REMARK  225  A    between atoms: _548  and  _550
REMARK  226  A    between atoms: _550  and  _551
REMARK  227  A    between atoms: _550  and  _553
REMARK  228  A    between atoms: _553  and  _554
REMARK  229  A    between atoms: _556  and  _558
REMARK  230  A    between atoms: _558  and  _559
REMARK  231  A    between atoms: _558  and  _561
REMARK  232  A    between atoms: _561  and  _562
REMARK  233  A    between atoms: _562  and  _563
REMARK  234  A    between atoms: _563  and  _564
REMARK  235  A    between atoms: _564  and  _565
REMARK  236  A    between atoms: _569  and  _571
REMARK  237  A    between atoms: _571  and  _572
REMARK  238  A    between atoms: _571  and  _574
REMARK  239  A    between atoms: _574  and  _575
REMARK  240  A    between atoms: _578  and  _580
REMARK  241  A    between atoms: _580  and  _581
REMARK  242  A    between atoms: _583  and  _585
REMARK  243  A    between atoms: _585  and  _586
REMARK  244  A    between atoms: _585  and  _588
REMARK  245  A    between atoms: _588  and  _589
REMARK  246  A    between atoms: _591  and  _593
REMARK  247  A    between atoms: _593  and  _594
REMARK  248  A    between atoms: _596  and  _598
REMARK  249  A    between atoms: _598  and  _599
REMARK  250  A    between atoms: _598  and  _601
REMARK  251  A    between atoms: _601  and  _602
REMARK  252  A    between atoms: _607  and  _609
REMARK  253  A    between atoms: _609  and  _610
REMARK  254  A    between atoms: _609  and  _612
REMARK  255  A    between atoms: _612  and  _613
REMARK  256  A    between atoms: _616  and  _618
REMARK  257  A    between atoms: _618  and  _619
REMARK  258  A    between atoms: _618  and  _621
REMARK  259  A    between atoms: _621  and  _622
REMARK  260  A    between atoms: _628  and  _630
REMARK  261  A    between atoms: _630  and  _631
REMARK  262  A    between atoms: _630  and  _633
REMARK  263  A    between atoms: _633  and  _634
REMARK  264  A    between atoms: _634  and  _635
REMARK  265  A    between atoms: _638  and  _640
REMARK  266  A    between atoms: _640  and  _641
REMARK  267  A    between atoms: _640  and  _643
REMARK  268  A    between atoms: _643  and  _644
REMARK  269  A    between atoms: _644  and  _645
REMARK  270  A    between atoms: _645  and  _646
REMARK  271  A    between atoms: _655  and  _657
REMARK  272  A    between atoms: _657  and  _658
REMARK  273  A    between atoms: _657  and  _660
REMARK  274  A    between atoms: _660  and  _661
REMARK  275  A    between atoms: _661  and  _662
REMARK  276  A    between atoms: _662  and  _663
REMARK  277  A    between atoms: _672  and  _674
REMARK  278  A    between atoms: _674  and  _675
REMARK  279  A    between atoms: _674  and  _677
REMARK  280  A    between atoms: _677  and  _678
REMARK  281  A    between atoms: _683  and  _684
REMARK  282  A    between atoms: _686  and  _688
REMARK  283  A    between atoms: _688  and  _689
REMARK  284  A    between atoms: _688  and  _691
REMARK  285  A    between atoms: _691  and  _692
REMARK  286  A    between atoms: _695  and  _697
REMARK  287  A    between atoms: _697  and  _698
REMARK  288  A    between atoms: _697  and  _700
REMARK  289  A    between atoms: _700  and  _701
REMARK  290  A    between atoms: _701  and  _702
REMARK  291  A    between atoms: _702  and  _703
REMARK  292  A    between atoms: _703  and  _704
REMARK  293  A    between atoms: _708  and  _710
REMARK  294  A    between atoms: _710  and  _711
REMARK  295  A    between atoms: _710  and  _713
REMARK  296  A    between atoms: _713  and  _714
REMARK  297  A    between atoms: _719  and  _721
REMARK  298  A    between atoms: _721  and  _722
REMARK  299  A    between atoms: _721  and  _724
REMARK  300  A    between atoms: _724  and  _725
REMARK  301  A    between atoms: _735  and  _737
REMARK  302  A    between atoms: _737  and  _738
REMARK  303  A    between atoms: _737  and  _740
REMARK  304  A    between atoms: _740  and  _741
REMARK  305  A    between atoms: _741  and  _742
REMARK  306  A    between atoms: _745  and  _747
REMARK  307  A    between atoms: _747  and  _748
REMARK  308  A    between atoms: _747  and  _750
REMARK  309  A    between atoms: _750  and  _751
REMARK  310  A    between atoms: _754  and  _756
REMARK  311  A    between atoms: _756  and  _757
REMARK  312  A    between atoms: _756  and  _759
REMARK  313  A    between atoms: _759  and  _760
REMARK  314  A    between atoms: _765  and  _767
REMARK  315  A    between atoms: _767  and  _768
REMARK  316  A    between atoms: _767  and  _770
REMARK  317  A    between atoms: _770  and  _771
REMARK  318  A    between atoms: _777  and  _779
REMARK  319  A    between atoms: _779  and  _780
REMARK  320  A    between atoms: _779  and  _782
REMARK  321  A    between atoms: _782  and  _783
REMARK  322  A    between atoms: _785  and  _787
REMARK  323  A    between atoms: _787  and  _788
REMARK  324  A    between atoms: _790  and  _792
REMARK  325  A    between atoms: _792  and  _793
REMARK  326  A    between atoms: _792  and  _795
REMARK  327  A    between atoms: _795  and  _796
REMARK  328  A    between atoms: _801  and  _802
REMARK  329  A    between atoms: _804  and  _806
REMARK  330  A    between atoms: _806  and  _807
REMARK  331  A    between atoms: _806  and  _809
REMARK  332  A    between atoms: _809  and  _810
REMARK  333  A    between atoms: _815  and  _816
REMARK  334  A    between atoms: _818  and  _820
REMARK  335  A    between atoms: _820  and  _821
REMARK  336  A    between atoms: _820  and  _823
REMARK  337  A    between atoms: _823  and  _824
REMARK  338  A    between atoms: _828  and  ZN_938
REMARK  339  A    between atoms: _829  and  _831
REMARK  340  A    between atoms: _831  and  _832
REMARK  341  A    between atoms: _831  and  _834
REMARK  342  A    between atoms: _834  and  _835
REMARK  343  A    between atoms: _835  and  _836
REMARK  344  A    between atoms: _839  and  _841
REMARK  345  A    between atoms: _841  and  _842
REMARK  346  A    between atoms: _841  and  _844
REMARK  347  A    between atoms: _844  and  _845
REMARK  348  A    between atoms: _845  and  _846
REMARK  349  A    between atoms: _846  and  _847
REMARK  350  A    between atoms: _856  and  _858
REMARK  351  A    between atoms: _858  and  _859
REMARK  352  A    between atoms: _858  and  _861
REMARK  353  A    between atoms: _861  and  _862
REMARK  354  A    between atoms: _867  and  _868
REMARK  355  A    between atoms: _870  and  _872
REMARK  356  A    between atoms: _872  and  _873
REMARK  357  A    between atoms: _872  and  _875
REMARK  358  A    between atoms: _875  and  _876
REMARK  359  A    between atoms: _878  and  _880
REMARK  360  A    between atoms: _880  and  _881
REMARK  361  A    between atoms: _880  and  _883
REMARK  362  A    between atoms: _883  and  _884
REMARK  363  A    between atoms: _889  and  _891
REMARK  364  A    between atoms: _891  and  _892
REMARK  365  A    between atoms: _891  and  _894
REMARK  366  A    between atoms: _894  and  _895
REMARK  367  A    between atoms: _900  and  _902
REMARK  368  A    between atoms: _902  and  _903
REMARK  369  A    between atoms: _902  and  _905
REMARK  370  A    between atoms: _905  and  _906
REMARK  371  A    between atoms: _906  and  _907
REMARK  372  A    between atoms: _907  and  _908
REMARK  373  A    between atoms: _908  and  _909
REMARK  374  A    between atoms: _913  and  _915
REMARK  375  A    between atoms: _915  and  _916
REMARK  376  A    between atoms: _915  and  _918
REMARK  377  A    between atoms: _918  and  _919
REMARK  378  A    between atoms: _924  and  _925
REMARK  379  A    between atoms: _927  and  _929
REMARK  380  A    between atoms: _929  and  _930
REMARK  381  A    between atoms: _933  and  _935
REMARK  382  A    between atoms: _935  and  _936
REMARK                            x       y       z     vdW  Elec       q    Type
REMARK                         _______ _______ _______ _____ _____    ______ ____
ROOT
ATOM      1  CG  TYR A   1      10.953  59.099  40.473  0.00  0.00    -0.020 A 
ATOM      2  CD2 TYR A   1      10.686  58.050  41.366  0.00  0.00    -0.001 A 
ATOM      3  CE2 TYR A   1      11.081  56.748  41.093  0.00  0.00    +0.036 A 
ATOM      4  CZ  TYR A   1      11.798  56.494  39.926  0.00  0.00    +0.134 A 
ATOM      5  CE1 TYR A   1      12.086  57.517  39.013  0.00  0.00    +0.036 A 
ATOM      6  CD1 TYR A   1      11.660  58.824  39.295  0.00  0.00    -0.001 A 
ENDROOT
BRANCH   4   7
ATOM      7  OH  TYR A   1      12.252  55.230  39.631  0.00  0.00    -0.506 OA
ATOM      8  HH  TYR A   1      11.983  54.607  40.352  0.00  0.00    +0.292 HD
ENDBRANCH   4   7
BRANCH   1   9
ATOM      9  CB  TYR A   1      10.508  60.525  40.776  0.00  0.00    +0.051 C 
BRANCH   9  10
ATOM     10  CA  TYR A   1       9.261  60.614  41.710  0.00  0.00    +0.137 C 
BRANCH  10  11
ATOM     11  N   TYR A   1       8.066  60.113  41.062  0.00  0.00    -0.239 NA
ATOM     12  H   TYR A   1       7.851  60.404  40.087  0.00  0.00    +0.142 HD
ENDBRANCH  10  11
BRANCH  10  13
ATOM     13  C   TYR A   1       8.949  62.048  42.079  0.00  0.00    +0.224 C 
ATOM     14  O   TYR A   1       8.973  62.970  41.249  0.00  0.00    -0.287 OA
ENDBRANCH  10  13
ENDBRANCH   9  10
ENDBRANCH   1   9
TORSDOF 5
REMARK  Name = ../refined-set-2016/2xeg/2xeg_pocket.pdb
REMARK  382 active torsions:
REMARK  status: ('A' for Active; 'I' for Inactive)
REMARK    1  A    between atoms: _1  and  _3
REMARK    2  A    between atoms: _3  and  _4
REMARK    3  A    between atoms: _7  and  _9
REMARK    4  A    between atoms: _9  and  _10
REMARK    5  A    between atoms: _9  and  _12
REMARK    6  A    between atoms: _12  and  _13
REMARK    7  A    between atoms: _19  and  _21
REMARK    8  A    between atoms: _21  and  _22
REMARK    9  A    between atoms: _21  and  _24
REMARK   10  A    between atoms: _24  and  _25
REMARK   11  A    between atoms: _30  and  _31
REMARK   12  A    between atoms: _33  and  _35
REMARK   13  A    between atoms: _35  and  _36
REMARK   14  A    between atoms: _38  and  _40
REMARK   15  A    between atoms: _40  and  _41
REMARK   16  A    between atoms: _40  and  _43
REMARK   17  A    between atoms: _43  and  _44
REMARK   18  A    between atoms: _44  and  _45
REMARK   19  A    between atoms: _45  and  _46
REMARK   20  A    between atoms: _46  and  _47
REMARK   21  A    between atoms: _51  and  _53
REMARK   22  A    between atoms: _53  and  _54
REMARK   23  A    between atoms: _53  and  _56
REMARK   24  A    between atoms: _59  and  _61
REMARK   25  A    between atoms: _61  and  _62
REMARK   26  A    between atoms: _61  and  _64
REMARK   27  A    between atoms: _64  and  _65
REMARK   28  A    between atoms: _71  and  _73
REMARK   29  A    between atoms: _73  and  _74
REMARK   30  A    between atoms: _73  and  _76
REMARK   31  A    between atoms: _76  and  _77
REMARK   32  A    between atoms: _77  and  _78
REMARK   33  A    between atoms: _78  and  _79
REMARK   34  A    between atoms: _88  and  _90
REMARK   35  A    between atoms: _90  and  _91
REMARK   36  A    between atoms: _93  and  _95
REMARK   37  A    between atoms: _95  and  _96
REMARK   38  A    between atoms: _95  and  _98
REMARK   39  A    between atoms: _98  and  _99
REMARK   40  A    between atoms: _99  and  _100
REMARK   41  A    between atoms: _100  and  _101
REMARK   42  A    between atoms: _101  and  _102
REMARK   43  A    between atoms: _106  and  _108
REMARK   44  A    between atoms: _108  and  _109
REMARK   45  A    between atoms: _108  and  _111
REMARK   46  A    between atoms: _111  and  _112
REMARK   47  A    between atoms: _115  and  _117
REMARK   48  A    between atoms: _117  and  _118
REMARK   49  A    between atoms: _117  and  _120
REMARK   50  A    between atoms: _120  and  _121
REMARK   51  A    between atoms: _126  and  _127
REMARK   52  A    between atoms: _129  and  _131
REMARK   53  A    between atoms: _131  and  _132
REMARK   54  A    between atoms: _131  and  _134
REMARK   55  A    between atoms: _134  and  _135
REMARK   56  A    between atoms: _135  and  _136
REMARK   57  A    between atoms: _141  and  _143
REMARK   58  A    between atoms: _143  and  _144
REMARK   59  A    between atoms: _143  and  _146
REMARK   60  A    between atoms: _146  and  _147
REMARK   61  A    between atoms: _147  and  _148
REMARK   62  A    between atoms: _148  and  _149
REMARK   63  A    between atoms: _158  and  _160
REMARK   64  A    between atoms: _160  and  _161
REMARK   65  A    between atoms: _163  and  _165
REMARK   66  A    between atoms: _165  and  _166
REMARK   67  A    between atoms: _165  and  _168
REMARK   68  A    between atoms: _168  and  _169
REMARK   69  A    between atoms: _174  and  _176
REMARK   70  A    between atoms: _176  and  _177
REMARK   71  A    between atoms: _176  and  _179
REMARK   72  A    between atoms: _179  and  _180
REMARK   73  A    between atoms: _183  and  _185
REMARK   74  A    between atoms: _185  and  _186
REMARK   75  A    between atoms: _185  and  _188
REMARK   76  A    between atoms: _188  and  _189
REMARK   77  A    between atoms: _192  and  _194
REMARK   78  A    between atoms: _194  and  _195
REMARK   79  A    between atoms: _194  and  _197
REMARK   80  A    between atoms: _197  and  _198
REMARK   81  A    between atoms: _203  and  _205
REMARK   82  A    between atoms: _205  and  _206
REMARK   83  A    between atoms: _205  and  _208
REMARK   84  A    between atoms: _208  and  _209
REMARK   85  A    between atoms: _212  and  _214
REMARK   86  A    between atoms: _214  and  _215
REMARK   87  A    between atoms: _214  and  _217
REMARK   88  A    between atoms: _217  and  _218
REMARK   89  A    between atoms: _223  and  _225
REMARK   90  A    between atoms: _225  and  _226
REMARK   91  A    between atoms: _228  and  _230
REMARK   92  A    between atoms: _230  and  _231
REMARK   93  A    between atoms: _230  and  _233
REMARK   94  A    between atoms: _233  and  _234
REMARK   95  A    between atoms: _238  and  ZN_939
REMARK   96  A    between atoms: _239  and  _241
REMARK   97  A    between atoms: _241  and  _242
REMARK   98  A    between atoms: _241  and  _244
REMARK   99  A    between atoms: _244  and  _245
REMARK  100  A    between atoms: _248  and  _250
REMARK  101  A    between atoms: _250  and  _251
REMARK  102  A    between atoms: _250  and  _253
REMARK  103  A    between atoms: _253  and  _254
REMARK  104  A    between atoms: _264  and  _266
REMARK  105  A    between atoms: _266  and  _267
REMARK  106  A    between atoms: _266  and  _269
REMARK  107  A    between atoms: _269  and  _270
REMARK  108  A    between atoms: _273  and  _275
REMARK  109  A    between atoms: _275  and  _276
REMARK  110  A    between atoms: _275  and  _278
REMARK  111  A    between atoms: _278  and  _279
REMARK  112  A    between atoms: _279  and  _280
REMARK  113  A    between atoms: _279  and  _281
REMARK  114  A    between atoms: _280  and  ZN_939
REMARK  115  A    between atoms: _281  and  ZN_938
REMARK  116  A    between atoms: _283  and  _284
REMARK  117  A    between atoms: _289  and  _291
REMARK  118  A    between atoms: _291  and  _292
REMARK  119  A    between atoms: _295  and  _297
REMARK  120  A    between atoms: _297  and  _298
REMARK  121  A    between atoms: _297  and  _300
REMARK  122  A    between atoms: _300  and  _301
REMARK  123  A    between atoms: _301  and  _302
REMARK  124  A    between atoms: _305  and  _307
REMARK  125  A    between atoms: _307  and  _308
REMARK  126  A    between atoms: _307  and  _310
REMARK  127  A    between atoms: _310  and  _311
REMARK  128  A    between atoms: _311  and  _312
REMARK  129  A    between atoms: _312  and  _314
REMARK  130  A    between atoms: _314  and  ZN_938
REMARK  131  A    between atoms: _315  and  _317
REMARK  132  A    between atoms: _317  and  _318
REMARK  133  A    between atoms: _317  and  _320
REMARK  134  A    between atoms: _320  and  _321
REMARK  135  A    between atoms: _327  and  _329
REMARK  136  A    between atoms: _329  and  _330
REMARK  137  A    between atoms: _332  and  _334
REMARK  138  A    between atoms: _334  and  _335
REMARK  139  A    between atoms: _334  and  _337
REMARK  140  A    between atoms: _337  and  _338
REMARK  141  A    between atoms: _341  and  _343
REMARK  142  A    between atoms: _343  and  _344
REMARK  143  A    between atoms: _343  and  _346
REMARK  144  A    between atoms: _346  and  _347
REMARK  145  A    between atoms: _350  and  _352
REMARK  146  A    between atoms: _352  and  _353
REMARK  147  A    between atoms: _352  and  _355
REMARK  148  A    between atoms: _355  and  _356
REMARK  149  A    between atoms: _361  and  _363
REMARK  150  A    between atoms: _363  and  _364
REMARK  151  A    between atoms: _363  and  _366
REMARK  152  A    between atoms: _366  and  _367
REMARK  153  A    between atoms: _367  and  _369
REMARK  154  A    between atoms: _369  and  ZN_939
REMARK  155  A    between atoms: _370  and  _372
REMARK  156  A    between atoms: _372  and  _373
REMARK  157  A    between atoms: _372  and  _375
REMARK  158  A    between atoms: _375  and  _376
REMARK  159  A    between atoms: _378  and  _380
REMARK  160  A    between atoms: _380  and  _381
REMARK  161  A    between atoms: _380  and  _383
REMARK  162  A    between atoms: _383  and  _384
REMARK  163  A    between atoms: _386  and  _388
REMARK  164  A    between atoms: _388  and  _389
REMARK  165  A    between atoms: _388  and  _391
REMARK  166  A    between atoms: _391  and  _392
REMARK  167  A    between atoms: _395  and  _397
REMARK  168  A    between atoms: _397  and  _398
REMARK  169  A    between atoms: _397  and  _400
REMARK  170  A    between atoms: _400  and  _401
REMARK  171  A    between atoms: _401  and  _402
REMARK  172  A    between atoms: _405  and  _407
REMARK  173  A    between atoms: _407  and  _408
REMARK  174  A    between atoms: _407  and  _410
REMARK  175  A    between atoms: _410  and  _411
REMARK  176  A    between atoms: _416  and  _417
REMARK  177  A    between atoms: _419  and  _421
REMARK  178  A    between atoms: _421  and  _422
REMARK  179  A    between atoms: _421  and  _424
REMARK  180  A    between atoms: _424  and  _425
REMARK  181  A    between atoms: _428  and  _430
REMARK  182  A    between atoms: _430  and  _431
REMARK  183  A    between atoms: _430  and  _433
REMARK  184  A    between atoms: _433  and  _434
REMARK  185  A    between atoms: _437  and  _439
REMARK  186  A    between atoms: _439  and  _440
REMARK  187  A    between atoms: _439  and  _442
REMARK  188  A    between atoms: _442  and  _443
REMARK  189  A    between atoms: _443  and  _444
REMARK  190  A    between atoms: _444  and  _445
REMARK  191  A    between atoms: _454  and  _456
REMARK  192  A    between atoms: _456  and  _457
REMARK  193  A    between atoms: _456  and  _459
REMARK  194  A    between atoms: _462  and  _464
REMARK  195  A    between atoms: _464  and  _465
REMARK  196  A    between atoms: _464  and  _467
REMARK  197  A    between atoms: _467  and  _468
REMARK  198  A    between atoms: _471  and  _473
REMARK  199  A    between atoms: _473  and  _474
REMARK  200  A    between atoms: _473  and  _476
REMARK  201  A    between atoms: _476  and  _477
REMARK  202  A    between atoms: _487  and  _489
REMARK  203  A    between atoms: _489  and  _490
REMARK  204  A    between atoms: _489  and  _492
REMARK  205  A    between atoms: _492  and  _493
REMARK  206  A    between atoms: _493  and  _494
REMARK  207  A    between atoms: _494  and  _495
REMARK  208  A    between atoms: _495  and  _496
REMARK  209  A    between atoms: _500  and  _502
REMARK  210  A    between atoms: _502  and  _503
REMARK  211  A    between atoms: _502  and  _505
REMARK  212  A    between atoms: _505  and  _506
REMARK  213  A    between atoms: _509  and  _510
REMARK  214  A    between atoms: _516  and  _517
REMARK  215  A    between atoms: _522  and  _524
REMARK  216  A    between atoms: _524  and  _525
REMARK  217  A    between atoms: _524  and  _527
REMARK  218  A    between atoms: _527  and  _528
REMARK  219  A    between atoms: _528  and  _529
REMARK  220  A    between atoms: _529  and  _530
REMARK  221  A    between atoms: _539  and  _541
REMARK  222  A    between atoms: _541  and  _542
REMARK  223  A    between atoms: _541  and  _544
REMARK  224  A    between atoms: _544  and  _545
REMARK  225  A    between atoms: _548  and  _550
REMARK  226  A    between atoms: _550  and  _551
REMARK  227  A    between atoms: _550  and  _553
REMARK  228  A    between atoms: _553  and  _554
REMARK  229  A    between atoms: _556  and  _558
REMARK  230  A    between atoms: _558  and  _559
REMARK  231  A    between atoms: _558  and  _561
REMARK  232  A    between atoms: _561  and  _562
REMARK  233  A    between atoms: _562  and  _563
REMARK  234  A    between atoms: _563  and  _564
REMARK  235  A    between atoms: _564  and  _565
REMARK  236  A    between atoms: _569  and  _571
REMARK  237  A    between atoms: _571  and  _572
REMARK  238  A    between atoms: _571  and  _574
REMARK  239  A    between atoms: _574  and  _575
REMARK  240  A    between atoms: _578  and  _580
REMARK  241  A    between atoms: _580  and  _581
REMARK  242  A    between atoms: _583  and  _585
REMARK  243  A    between atoms: _585  and  _586
REMARK  244  A    between atoms: _585  and  _588
REMARK  245  A    between atoms: _588  and  _589
REMARK  246  A    between atoms: _591  and  _593
REMARK  247  A    between atoms: _593  and  _594
REMARK  248  A    between atoms: _596  and  _598
REMARK  249  A    between atoms: _598  and  _599
REMARK  250  A    between atoms: _598  and  _601
REMARK  251  A    between atoms: _601  and  _602
REMARK  252  A    between atoms: _607  and  _609
REMARK  253  A    between atoms: _609  and  _610
REMARK  254  A    between atoms: _609  and  _612
REMARK  255  A    between atoms: _612  and  _613
REMARK  256  A    between atoms: _616  and  _618
REMARK  257  A    between atoms: _618  and  _619
REMARK  258  A    between atoms: _618  and  _621
REMARK  259  A    between atoms: _621  and  _622
REMARK  260  A    between atoms: _628  and  _630
REMARK  261  A    between atoms: _630  and  _631
REMARK  262  A    between atoms: _630  and  _633
REMARK  263  A    between atoms: _633  and  _634
REMARK  264  A    between atoms: _634  and  _635
REMARK  265  A    between atoms: _638  and  _640
REMARK  266  A    between atoms: _640  and  _641
REMARK  267  A    between atoms: _640  and  _643
REMARK  268  A    between atoms: _643  and  _644
REMARK  269  A    between atoms: _644  and  _645
REMARK  270  A    between atoms: _645  and  _646
REMARK  271  A    between atoms: _655  and  _657
REMARK  272  A    between atoms: _657  and  _658
REMARK  273  A    between atoms: _657  and  _660
REMARK  274  A    between atoms: _660  and  _661
REMARK  275  A    between atoms: _661  and  _662
REMARK  276  A    between atoms: _662  and  _663
REMARK  277  A    between atoms: _672  and  _674
REMARK  278  A    between atoms: _674  and  _675
REMARK  279  A    between atoms: _674  and  _677
REMARK  280  A    between atoms: _677  and  _678
REMARK  281  A    between atoms: _683  and  _684
REMARK  282  A    between atoms: _686  and  _688
REMARK  283  A    between atoms: _688  and  _689
REMARK  284  A    between atoms: _688  and  _691
REMARK  285  A    between atoms: _691  and  _692
REMARK  286  A    between atoms: _695  and  _697
REMARK  287  A    between atoms: _697  and  _698
REMARK  288  A    between atoms: _697  and  _700
REMARK  289  A    between atoms: _700  and  _701
REMARK  290  A    between atoms: _701  and  _702
REMARK  291  A    between atoms: _702  and  _703
REMARK  292  A    between atoms: _703  and  _704
REMARK  293  A    between atoms: _708  and  _710
REMARK  294  A    between atoms: _710  and  _711
REMARK  295  A    between atoms: _710  and  _713
REMARK  296  A    between atoms: _713  and  _714
REMARK  297  A    between atoms: _719  and  _721
REMARK  298  A    between atoms: _721  and  _722
REMARK  299  A    between atoms: _721  and  _724
REMARK  300  A    between atoms: _724  and  _725
REMARK  301  A    between atoms: _735  and  _737
REMARK  302  A    between atoms: _737  and  _738
REMARK  303  A    between atoms: _737  and  _740
REMARK  304  A    between atoms: _740  and  _741
REMARK  305  A    between atoms: _741  and  _742
REMARK  306  A    between atoms: _745  and  _747
REMARK  307  A    between atoms: _747  and  _748
REMARK  308  A    between atoms: _747  and  _750
REMARK  309  A    between atoms: _750  and  _751
REMARK  310  A    between atoms: _754  and  _756
REMARK  311  A    between atoms: _756  and  _757
REMARK  312  A    between atoms: _756  and  _759
REMARK  313  A    between atoms: _759  and  _760
REMARK  314  A    between atoms: _765  and  _767
REMARK  315  A    between atoms: _767  and  _768
REMARK  316  A    between atoms: _767  and  _770
REMARK  317  A    between atoms: _770  and  _771
REMARK  318  A    between atoms: _777  and  _779
REMARK  319  A    between atoms: _779  and  _780
REMARK  320  A    between atoms: _779  and  _782
REMARK  321  A    between atoms: _782  and  _783
REMARK  322  A    between atoms: _785  and  _787
REMARK  323  A    between atoms: _787  and  _788
REMARK  324  A    between atoms: _790  and  _792
REMARK  325  A    between atoms: _792  and  _793
REMARK  326  A    between atoms: _792  and  _795
REMARK  327  A    between atoms: _795  and  _796
REMARK  328  A    between atoms: _801  and  _802
REMARK  329  A    between atoms: _804  and  _806
REMARK  330  A    between atoms: _806  and  _807
REMARK  331  A    between atoms: _806  and  _809
REMARK  332  A    between atoms: _809  and  _810
REMARK  333  A    between atoms: _815  and  _816
REMARK  334  A    between atoms: _818  and  _820
REMARK  335  A    between atoms: _820  and  _821
REMARK  336  A    between atoms: _820  and  _823
REMARK  337  A    between atoms: _823  and  _824
REMARK  338  A    between atoms: _828  and  ZN_938
REMARK  339  A    between atoms: _829  and  _831
REMARK  340  A    between atoms: _831  and  _832
REMARK  341  A    between atoms: _831  and  _834
REMARK  342  A    between atoms: _834  and  _835
REMARK  343  A    between atoms: _835  and  _836
REMARK  344  A    between atoms: _839  and  _841
REMARK  345  A    between atoms: _841  and  _842
REMARK  346  A    between atoms: _841  and  _844
REMARK  347  A    between atoms: _844  and  _845
REMARK  348  A    between atoms: _845  and  _846
REMARK  349  A    between atoms: _846  and  _847
REMARK  350  A    between atoms: _856  and  _858
REMARK  351  A    between atoms: _858  and  _859
REMARK  352  A    between atoms: _858  and  _861
REMARK  353  A    between atoms: _861  and  _862
REMARK  354  A    between atoms: _867  and  _868
REMARK  355  A    between atoms: _870  and  _872
REMARK  356  A    between atoms: _872  and  _873
REMARK  357  A    between atoms: _872  and  _875
REMARK  358  A    between atoms: _875  and  _876
REMARK  359  A    between atoms: _878  and  _880
REMARK  360  A    between atoms: _880  and  _881
REMARK  361  A    between atoms: _880  and  _883
REMARK  362  A    between atoms: _883  and  _884
REMARK  363  A    between atoms: _889  and  _891
REMARK  364  A    between atoms: _891  and  _892
REMARK  365  A    between atoms: _891  and  _894
REMARK  366  A    between atoms: _894  and  _895
REMARK  367  A    between atoms: _900  and  _902
REMARK  368  A    between atoms: _902  and  _903
REMARK  369  A    between atoms: _902  and  _905
REMARK  370  A    between atoms: _905  and  _906
REMARK  371  A    between atoms: _906  and  _907
REMARK  372  A    between atoms: _907  and  _908
REMARK  373  A    between atoms: _908  and  _909
REMARK  374  A    between atoms: _913  and  _915
REMARK  375  A    between atoms: _915  and  _916
REMARK  376  A    between atoms: _915  and  _918
REMARK  377  A    between atoms: _918  and  _919
REMARK  378  A    between atoms: _924  and  _925
REMARK  379  A    between atoms: _927  and  _929
REMARK  380  A    between atoms: _929  and  _930
REMARK  381  A    between atoms: _933  and  _935
REMARK  382  A    between atoms: _935  and  _936
REMARK                            x       y       z     vdW  Elec       q    Type
REMARK                         _______ _______ _______ _____ _____    ______ ____
ROOT
ATOM      1  CA  SER A   1      19.183  58.891  38.099  0.00  0.00    +0.163 C 
ENDROOT
BRANCH   1   2
ATOM      2  N   SER A   1      18.648  58.311  39.325  0.00  0.00    -0.237 NA
ATOM      3  H   SER A   1      19.258  57.746  39.950  0.00  0.00    +0.142 HD
ENDBRANCH   1   2
BRANCH   1   4
ATOM      4  C   SER A   1      18.401  58.464  36.876  0.00  0.00    +0.227 C 
ATOM      5  O   SER A   1      18.091  57.280  36.684  0.00  0.00    -0.287 OA
ENDBRANCH   1   4
BRANCH   1   6
ATOM      6  CB  SER A   1      20.680  58.486  37.944  0.00  0.00    +0.162 C 
BRANCH   6   7
ATOM      7  OG  SER A   1      21.100  58.871  36.623  0.00  0.00    -0.380 OA
ATOM      8  H   SER A   1      20.994  59.849  36.516  0.00  0.00    +0.211 HD
ENDBRANCH   6   7
ENDBRANCH   1   6
TORSDOF 4
REMARK  Name = ../refined-set-2016/2xeg/2xeg_pocket.pdb
REMARK  382 active torsions:
REMARK  status: ('A' for Active; 'I' for Inactive)
REMARK    1  A    between atoms: _1  and  _3
REMARK    2  A    between atoms: _3  and  _4
REMARK    3  A    between atoms: _7  and  _9
REMARK    4  A    between atoms: _9  and  _10
REMARK    5  A    between atoms: _9  and  _12
REMARK    6  A    between atoms: _12  and  _13
REMARK    7  A    between atoms: _19  and  _21
REMARK    8  A    between atoms: _21  and  _22
REMARK    9  A    between atoms: _21  and  _24
REMARK   10  A    between atoms: _24  and  _25
REMARK   11  A    between atoms: _30  and  _31
REMARK   12  A    between atoms: _33  and  _35
REMARK   13  A    between atoms: _35  and  _36
REMARK   14  A    between atoms: _38  and  _40
REMARK   15  A    between atoms: _40  and  _41
REMARK   16  A    between atoms: _40  and  _43
REMARK   17  A    between atoms: _43  and  _44
REMARK   18  A    between atoms: _44  and  _45
REMARK   19  A    between atoms: _45  and  _46
REMARK   20  A    between atoms: _46  and  _47
REMARK   21  A    between atoms: _51  and  _53
REMARK   22  A    between atoms: _53  and  _54
REMARK   23  A    between atoms: _53  and  _56
REMARK   24  A    between atoms: _59  and  _61
REMARK   25  A    between atoms: _61  and  _62
REMARK   26  A    between atoms: _61  and  _64
REMARK   27  A    between atoms: _64  and  _65
REMARK   28  A    between atoms: _71  and  _73
REMARK   29  A    between atoms: _73  and  _74
REMARK   30  A    between atoms: _73  and  _76
REMARK   31  A    between atoms: _76  and  _77
REMARK   32  A    between atoms: _77  and  _78
REMARK   33  A    between atoms: _78  and  _79
REMARK   34  A    between atoms: _88  and  _90
REMARK   35  A    between atoms: _90  and  _91
REMARK   36  A    between atoms: _93  and  _95
REMARK   37  A    between atoms: _95  and  _96
REMARK   38  A    between atoms: _95  and  _98
REMARK   39  A    between atoms: _98  and  _99
REMARK   40  A    between atoms: _99  and  _100
REMARK   41  A    between atoms: _100  and  _101
REMARK   42  A    between atoms: _101  and  _102
REMARK   43  A    between atoms: _106  and  _108
REMARK   44  A    between atoms: _108  and  _109
REMARK   45  A    between atoms: _108  and  _111
REMARK   46  A    between atoms: _111  and  _112
REMARK   47  A    between atoms: _115  and  _117
REMARK   48  A    between atoms: _117  and  _118
REMARK   49  A    between atoms: _117  and  _120
REMARK   50  A    between atoms: _120  and  _121
REMARK   51  A    between atoms: _126  and  _127
REMARK   52  A    between atoms: _129  and  _131
REMARK   53  A    between atoms: _131  and  _132
REMARK   54  A    between atoms: _131  and  _134
REMARK   55  A    between atoms: _134  and  _135
REMARK   56  A    between atoms: _135  and  _136
REMARK   57  A    between atoms: _141  and  _143
REMARK   58  A    between atoms: _143  and  _144
REMARK   59  A    between atoms: _143  and  _146
REMARK   60  A    between atoms: _146  and  _147
REMARK   61  A    between atoms: _147  and  _148
REMARK   62  A    between atoms: _148  and  _149
REMARK   63  A    between atoms: _158  and  _160
REMARK   64  A    between atoms: _160  and  _161
REMARK   65  A    between atoms: _163  and  _165
REMARK   66  A    between atoms: _165  and  _166
REMARK   67  A    between atoms: _165  and  _168
REMARK   68  A    between atoms: _168  and  _169
REMARK   69  A    between atoms: _174  and  _176
REMARK   70  A    between atoms: _176  and  _177
REMARK   71  A    between atoms: _176  and  _179
REMARK   72  A    between atoms: _179  and  _180
REMARK   73  A    between atoms: _183  and  _185
REMARK   74  A    between atoms: _185  and  _186
REMARK   75  A    between atoms: _185  and  _188
REMARK   76  A    between atoms: _188  and  _189
REMARK   77  A    between atoms: _192  and  _194
REMARK   78  A    between atoms: _194  and  _195
REMARK   79  A    between atoms: _194  and  _197
REMARK   80  A    between atoms: _197  and  _198
REMARK   81  A    between atoms: _203  and  _205
REMARK   82  A    between atoms: _205  and  _206
REMARK   83  A    between atoms: _205  and  _208
REMARK   84  A    between atoms: _208  and  _209
REMARK   85  A    between atoms: _212  and  _214
REMARK   86  A    between atoms: _214  and  _215
REMARK   87  A    between atoms: _214  and  _217
REMARK   88  A    between atoms: _217  and  _218
REMARK   89  A    between atoms: _223  and  _225
REMARK   90  A    between atoms: _225  and  _226
REMARK   91  A    between atoms: _228  and  _230
REMARK   92  A    between atoms: _230  and  _231
REMARK   93  A    between atoms: _230  and  _233
REMARK   94  A    between atoms: _233  and  _234
REMARK   95  A    between atoms: _238  and  ZN_939
REMARK   96  A    between atoms: _239  and  _241
REMARK   97  A    between atoms: _241  and  _242
REMARK   98  A    between atoms: _241  and  _244
REMARK   99  A    between atoms: _244  and  _245
REMARK  100  A    between atoms: _248  and  _250
REMARK  101  A    between atoms: _250  and  _251
REMARK  102  A    between atoms: _250  and  _253
REMARK  103  A    between atoms: _253  and  _254
REMARK  104  A    between atoms: _264  and  _266
REMARK  105  A    between atoms: _266  and  _267
REMARK  106  A    between atoms: _266  and  _269
REMARK  107  A    between atoms: _269  and  _270
REMARK  108  A    between atoms: _273  and  _275
REMARK  109  A    between atoms: _275  and  _276
REMARK  110  A    between atoms: _275  and  _278
REMARK  111  A    between atoms: _278  and  _279
REMARK  112  A    between atoms: _279  and  _280
REMARK  113  A    between atoms: _279  and  _281
REMARK  114  A    between atoms: _280  and  ZN_939
REMARK  115  A    between atoms: _281  and  ZN_938
REMARK  116  A    between atoms: _283  and  _284
REMARK  117  A    between atoms: _289  and  _291
REMARK  118  A    between atoms: _291  and  _292
REMARK  119  A    between atoms: _295  and  _297
REMARK  120  A    between atoms: _297  and  _298
REMARK  121  A    between atoms: _297  and  _300
REMARK  122  A    between atoms: _300  and  _301
REMARK  123  A    between atoms: _301  and  _302
REMARK  124  A    between atoms: _305  and  _307
REMARK  125  A    between atoms: _307  and  _308
REMARK  126  A    between atoms: _307  and  _310
REMARK  127  A    between atoms: _310  and  _311
REMARK  128  A    between atoms: _311  and  _312
REMARK  129  A    between atoms: _312  and  _314
REMARK  130  A    between atoms: _314  and  ZN_938
REMARK  131  A    between atoms: _315  and  _317
REMARK  132  A    between atoms: _317  and  _318
REMARK  133  A    between atoms: _317  and  _320
REMARK  134  A    between atoms: _320  and  _321
REMARK  135  A    between atoms: _327  and  _329
REMARK  136  A    between atoms: _329  and  _330
REMARK  137  A    between atoms: _332  and  _334
REMARK  138  A    between atoms: _334  and  _335
REMARK  139  A    between atoms: _334  and  _337
REMARK  140  A    between atoms: _337  and  _338
REMARK  141  A    between atoms: _341  and  _343
REMARK  142  A    between atoms: _343  and  _344
REMARK  143  A    between atoms: _343  and  _346
REMARK  144  A    between atoms: _346  and  _347
REMARK  145  A    between atoms: _350  and  _352
REMARK  146  A    between atoms: _352  and  _353
REMARK  147  A    between atoms: _352  and  _355
REMARK  148  A    between atoms: _355  and  _356
REMARK  149  A    between atoms: _361  and  _363
REMARK  150  A    between atoms: _363  and  _364
REMARK  151  A    between atoms: _363  and  _366
REMARK  152  A    between atoms: _366  and  _367
REMARK  153  A    between atoms: _367  and  _369
REMARK  154  A    between atoms: _369  and  ZN_939
REMARK  155  A    between atoms: _370  and  _372
REMARK  156  A    between atoms: _372  and  _373
REMARK  157  A    between atoms: _372  and  _375
REMARK  158  A    between atoms: _375  and  _376
REMARK  159  A    between atoms: _378  and  _380
REMARK  160  A    between atoms: _380  and  _381
REMARK  161  A    between atoms: _380  and  _383
REMARK  162  A    between atoms: _383  and  _384
REMARK  163  A    between atoms: _386  and  _388
REMARK  164  A    between atoms: _388  and  _389
REMARK  165  A    between atoms: _388  and  _391
REMARK  166  A    between atoms: _391  and  _392
REMARK  167  A    between atoms: _395  and  _397
REMARK  168  A    between atoms: _397  and  _398
REMARK  169  A    between atoms: _397  and  _400
REMARK  170  A    between atoms: _400  and  _401
REMARK  171  A    between atoms: _401  and  _402
REMARK  172  A    between atoms: _405  and  _407
REMARK  173  A    between atoms: _407  and  _408
REMARK  174  A    between atoms: _407  and  _410
REMARK  175  A    between atoms: _410  and  _411
REMARK  176  A    between atoms: _416  and  _417
REMARK  177  A    between atoms: _419  and  _421
REMARK  178  A    between atoms: _421  and  _422
REMARK  179  A    between atoms: _421  and  _424
REMARK  180  A    between atoms: _424  and  _425
REMARK  181  A    between atoms: _428  and  _430
REMARK  182  A    between atoms: _430  and  _431
REMARK  183  A    between atoms: _430  and  _433
REMARK  184  A    between atoms: _433  and  _434
REMARK  185  A    between atoms: _437  and  _439
REMARK  186  A    between atoms: _439  and  _440
REMARK  187  A    between atoms: _439  and  _442
REMARK  188  A    between atoms: _442  and  _443
REMARK  189  A    between atoms: _443  and  _444
REMARK  190  A    between atoms: _444  and  _445
REMARK  191  A    between atoms: _454  and  _456
REMARK  192  A    between atoms: _456  and  _457
REMARK  193  A    between atoms: _456  and  _459
REMARK  194  A    between atoms: _462  and  _464
REMARK  195  A    between atoms: _464  and  _465
REMARK  196  A    between atoms: _464  and  _467
REMARK  197  A    between atoms: _467  and  _468
REMARK  198  A    between atoms: _471  and  _473
REMARK  199  A    between atoms: _473  and  _474
REMARK  200  A    between atoms: _473  and  _476
REMARK  201  A    between atoms: _476  and  _477
REMARK  202  A    between atoms: _487  and  _489
REMARK  203  A    between atoms: _489  and  _490
REMARK  204  A    between atoms: _489  and  _492
REMARK  205  A    between atoms: _492  and  _493
REMARK  206  A    between atoms: _493  and  _494
REMARK  207  A    between atoms: _494  and  _495
REMARK  208  A    between atoms: _495  and  _496
REMARK  209  A    between atoms: _500  and  _502
REMARK  210  A    between atoms: _502  and  _503
REMARK  211  A    between atoms: _502  and  _505
REMARK  212  A    between atoms: _505  and  _506
REMARK  213  A    between atoms: _509  and  _510
REMARK  214  A    between atoms: _516  and  _517
REMARK  215  A    between atoms: _522  and  _524
REMARK  216  A    between atoms: _524  and  _525
REMARK  217  A    between atoms: _524  and  _527
REMARK  218  A    between atoms: _527  and  _528
REMARK  219  A    between atoms: _528  and  _529
REMARK  220  A    between atoms: _529  and  _530
REMARK  221  A    between atoms: _539  and  _541
REMARK  222  A    between atoms: _541  and  _542
REMARK  223  A    between atoms: _541  and  _544
REMARK  224  A    between atoms: _544  and  _545
REMARK  225  A    between atoms: _548  and  _550
REMARK  226  A    between atoms: _550  and  _551
REMARK  227  A    between atoms: _550  and  _553
REMARK  228  A    between atoms: _553  and  _554
REMARK  229  A    between atoms: _556  and  _558
REMARK  230  A    between atoms: _558  and  _559
REMARK  231  A    between atoms: _558  and  _561
REMARK  232  A    between atoms: _561  and  _562
REMARK  233  A    between atoms: _562  and  _563
REMARK  234  A    between atoms: _563  and  _564
REMARK  235  A    between atoms: _564  and  _565
REMARK  236  A    between atoms: _569  and  _571
REMARK  237  A    between atoms: _571  and  _572
REMARK  238  A    between atoms: _571  and  _574
REMARK  239  A    between atoms: _574  and  _575
REMARK  240  A    between atoms: _578  and  _580
REMARK  241  A    between atoms: _580  and  _581
REMARK  242  A    between atoms: _583  and  _585
REMARK  243  A    between atoms: _585  and  _586
REMARK  244  A    between atoms: _585  and  _588
REMARK  245  A    between atoms: _588  and  _589
REMARK  246  A    between atoms: _591  and  _593
REMARK  247  A    between atoms: _593  and  _594
REMARK  248  A    between atoms: _596  and  _598
REMARK  249  A    between atoms: _598  and  _599
REMARK  250  A    between atoms: _598  and  _601
REMARK  251  A    between atoms: _601  and  _602
REMARK  252  A    between atoms: _607  and  _609
REMARK  253  A    between atoms: _609  and  _610
REMARK  254  A    between atoms: _609  and  _612
REMARK  255  A    between atoms: _612  and  _613
REMARK  256  A    between atoms: _616  and  _618
REMARK  257  A    between atoms: _618  and  _619
REMARK  258  A    between atoms: _618  and  _621
REMARK  259  A    between atoms: _621  and  _622
REMARK  260  A    between atoms: _628  and  _630
REMARK  261  A    between atoms: _630  and  _631
REMARK  262  A    between atoms: _630  and  _633
REMARK  263  A    between atoms: _633  and  _634
REMARK  264  A    between atoms: _634  and  _635
REMARK  265  A    between atoms: _638  and  _640
REMARK  266  A    between atoms: _640  and  _641
REMARK  267  A    between atoms: _640  and  _643
REMARK  268  A    between atoms: _643  and  _644
REMARK  269  A    between atoms: _644  and  _645
REMARK  270  A    between atoms: _645  and  _646
REMARK  271  A    between atoms: _655  and  _657
REMARK  272  A    between atoms: _657  and  _658
REMARK  273  A    between atoms: _657  and  _660
REMARK  274  A    between atoms: _660  and  _661
REMARK  275  A    between atoms: _661  and  _662
REMARK  276  A    between atoms: _662  and  _663
REMARK  277  A    between atoms: _672  and  _674
REMARK  278  A    between atoms: _674  and  _675
REMARK  279  A    between atoms: _674  and  _677
REMARK  280  A    between atoms: _677  and  _678
REMARK  281  A    between atoms: _683  and  _684
REMARK  282  A    between atoms: _686  and  _688
REMARK  283  A    between atoms: _688  and  _689
REMARK  284  A    between atoms: _688  and  _691
REMARK  285  A    between atoms: _691  and  _692
REMARK  286  A    between atoms: _695  and  _697
REMARK  287  A    between atoms: _697  and  _698
REMARK  288  A    between atoms: _697  and  _700
REMARK  289  A    between atoms: _700  and  _701
REMARK  290  A    between atoms: _701  and  _702
REMARK  291  A    between atoms: _702  and  _703
REMARK  292  A    between atoms: _703  and  _704
REMARK  293  A    between atoms: _708  and  _710
REMARK  294  A    between atoms: _710  and  _711
REMARK  295  A    between atoms: _710  and  _713
REMARK  296  A    between atoms: _713  and  _714
REMARK  297  A    between atoms: _719  and  _721
REMARK  298  A    between atoms: _721  and  _722
REMARK  299  A    between atoms: _721  and  _724
REMARK  300  A    between atoms: _724  and  _725
REMARK  301  A    between atoms: _735  and  _737
REMARK  302  A    between atoms: _737  and  _738
REMARK  303  A    between atoms: _737  and  _740
REMARK  304  A    between atoms: _740  and  _741
REMARK  305  A    between atoms: _741  and  _742
REMARK  306  A    between atoms: _745  and  _747
REMARK  307  A    between atoms: _747  and  _748
REMARK  308  A    between atoms: _747  and  _750
REMARK  309  A    between atoms: _750  and  _751
REMARK  310  A    between atoms: _754  and  _756
REMARK  311  A    between atoms: _756  and  _757
REMARK  312  A    between atoms: _756  and  _759
REMARK  313  A    between atoms: _759  and  _760
REMARK  314  A    between atoms: _765  and  _767
REMARK  315  A    between atoms: _767  and  _768
REMARK  316  A    between atoms: _767  and  _770
REMARK  317  A    between atoms: _770  and  _771
REMARK  318  A    between atoms: _777  and  _779
REMARK  319  A    between atoms: _779  and  _780
REMARK  320  A    between atoms: _779  and  _782
REMARK  321  A    between atoms: _782  and  _783
REMARK  322  A    between atoms: _785  and  _787
REMARK  323  A    between atoms: _787  and  _788
REMARK  324  A    between atoms: _790  and  _792
REMARK  325  A    between atoms: _792  and  _793
REMARK  326  A    between atoms: _792  and  _795
REMARK  327  A    between atoms: _795  and  _796
REMARK  328  A    between atoms: _801  and  _802
REMARK  329  A    between atoms: _804  and  _806
REMARK  330  A    between atoms: _806  and  _807
REMARK  331  A    between atoms: _806  and  _809
REMARK  332  A    between atoms: _809  and  _810
REMARK  333  A    between atoms: _815  and  _816
REMARK  334  A    between atoms: _818  and  _820
REMARK  335  A    between atoms: _820  and  _821
REMARK  336  A    between atoms: _820  and  _823
REMARK  337  A    between atoms: _823  and  _824
REMARK  338  A    between atoms: _828  and  ZN_938
REMARK  339  A    between atoms: _829  and  _831
REMARK  340  A    between atoms: _831  and  _832
REMARK  341  A    between atoms: _831  and  _834
REMARK  342  A    between atoms: _834  and  _835
REMARK  343  A    between atoms: _835  and  _836
REMARK  344  A    between atoms: _839  and  _841
REMARK  345  A    between atoms: _841  and  _842
REMARK  346  A    between atoms: _841  and  _844
REMARK  347  A    between atoms: _844  and  _845
REMARK  348  A    between atoms: _845  and  _846
REMARK  349  A    between atoms: _846  and  _847
REMARK  350  A    between atoms: _856  and  _858
REMARK  351  A    between atoms: _858  and  _859
REMARK  352  A    between atoms: _858  and  _861
REMARK  353  A    between atoms: _861  and  _862
REMARK  354  A    between atoms: _867  and  _868
REMARK  355  A    between atoms: _870  and  _872
REMARK  356  A    between atoms: _872  and  _873
REMARK  357  A    between atoms: _872  and  _875
REMARK  358  A    between atoms: _875  and  _876
REMARK  359  A    between atoms: _878  and  _880
REMARK  360  A    between atoms: _880  and  _881
REMARK  361  A    between atoms: _880  and  _883
REMARK  362  A    between atoms: _883  and  _884
REMARK  363  A    between atoms: _889  and  _891
REMARK  364  A    between atoms: _891  and  _892
REMARK  365  A    between atoms: _891  and  _894
REMARK  366  A    between atoms: _894  and  _895
REMARK  367  A    between atoms: _900  and  _902
REMARK  368  A    between atoms: _902  and  _903
REMARK  369  A    between atoms: _902  and  _905
REMARK  370  A    between atoms: _905  and  _906
REMARK  371  A    between atoms: _906  and  _907
REMARK  372  A    between atoms: _907  and  _908
REMARK  373  A    between atoms: _908  and  _909
REMARK  374  A    between atoms: _913  and  _915
REMARK  375  A    between atoms: _915  and  _916
REMARK  376  A    between atoms: _915  and  _918
REMARK  377  A    between atoms: _918  and  _919
REMARK  378  A    between atoms: _924  and  _925
REMARK  379  A    between atoms: _927  and  _929
REMARK  380  A    between atoms: _929  and  _930
REMARK  381  A    between atoms: _933  and  _935
REMARK  382  A    between atoms: _935  and  _936
REMARK                            x       y       z     vdW  Elec       q    Type
REMARK                         _______ _______ _______ _____ _____    ______ ____
ROOT
ATOM      1  CA  LYS A   3      17.965  53.667  38.433  0.00  0.00    +0.149 C 
ENDROOT
BRANCH   1   4
ATOM      2  C   ASN A   2      19.953  54.539  37.310  0.00  0.00    +0.241 C 
ATOM      3  O   ASN A   2      20.272  55.204  38.288  0.00  0.00    -0.273 OA
ATOM      4  N   LYS A   3      18.867  53.761  37.288  0.00  0.00    -0.297 N 
ATOM      5  H   LYS A   3      18.658  53.207  36.433  0.00  0.00    +0.150 HD
BRANCH   2   6
ATOM      6  CA  ASN A   2      20.775  54.566  36.026  0.00  0.00    +0.158 C 
BRANCH   6   8
ATOM      7  C   HIS A   1      20.800  55.917  34.036  0.00  0.00    +0.239 C 
ATOM      8  N   ASN A   2      20.378  55.765  35.293  0.00  0.00    -0.297 N 
ATOM      9  H   ASN A   2      19.778  56.486  35.742  0.00  0.00    +0.150 HD
ATOM     10  O   HIS A   1      21.458  55.045  33.436  0.00  0.00    -0.274 OA
BRANCH   7  11
ATOM     11  CA  HIS A   1      20.457  57.212  33.360  0.00  0.00    +0.151 C 
BRANCH  11  12
ATOM     12  N   HIS A   1      19.524  58.060  34.131  0.00  0.00    -0.238 NA
ATOM     13  H   HIS A   1      19.883  58.585  34.954  0.00  0.00    +0.142 HD
ENDBRANCH  11  12
BRANCH  11  14
ATOM     14  CB  HIS A   1      21.729  58.036  33.080  0.00  0.00    +0.074 C 
BRANCH  14  15
ATOM     15  CG  HIS A   1      21.404  59.318  32.394  0.00  0.00    +0.082 A 
ATOM     16  CD2 HIS A   1      21.169  60.555  32.897  0.00  0.00    +0.115 A 
ATOM     17  NE2 HIS A   1      20.796  61.358  31.845  0.00  0.00    -0.221 NA
ATOM     18  CE1 HIS A   1      20.848  60.650  30.724  0.00  0.00    +0.199 A 
ATOM     19  ND1 HIS A   1      21.189  59.405  31.030  0.00  0.00    -0.227 NA
ENDBRANCH  14  15
ENDBRANCH  11  14
ENDBRANCH   7  11
ENDBRANCH   6   8
BRANCH   6  20
ATOM     20  CB  ASN A   2      22.237  54.688  36.449  0.00  0.00    +0.114 C 
BRANCH  20  21
ATOM     21  CG  ASN A   2      22.679  53.542  37.397  0.00  0.00    +0.222 C 
ATOM     22  ND2 ASN A   2      23.911  53.650  38.006  0.00  0.00    -0.329 N 
ATOM     23 HD21 ASN A   2      24.254  52.888  38.625  0.00  0.00    +0.145 HD
ATOM     24 HD22 ASN A   2      24.498  54.494  37.847  0.00  0.00    +0.145 HD
ATOM     25  OD1 ASN A   2      21.947  52.564  37.553  0.00  0.00    -0.275 OA
ENDBRANCH  20  21
ENDBRANCH   6  20
ENDBRANCH   2   6
ENDBRANCH   1   4
BRANCH   1  26
ATOM     26  C   LYS A   3      18.657  53.333  39.726  0.00  0.00    +0.241 C 
ATOM     27  O   LYS A   3      18.166  53.710  40.817  0.00  0.00    -0.273 OA
ATOM     28  N   TYR A   4      19.827  52.642  39.663  0.00  0.00    -0.297 N 
ATOM     29  H   TYR A   4      20.250  52.345  38.761  0.00  0.00    +0.150 HD
BRANCH  28  30
ATOM     30  CA  TYR A   4      20.460  52.341  40.978  0.00  0.00    +0.153 C 
BRANCH  30  31
ATOM     31  C   TYR A   4      21.067  53.534  41.682  0.00  0.00    +0.241 C 
ATOM     32  O   TYR A   4      21.244  53.519  42.910  0.00  0.00    -0.273 OA
ATOM     33  N   ALA A   5      21.476  54.535  40.910  0.00  0.00    -0.297 N 
ATOM     34  H   ALA A   5      21.288  54.490  39.888  0.00  0.00    +0.150 HD
BRANCH  33  35
ATOM     35  CA  ALA A   5      22.179  55.693  41.445  0.00  0.00    +0.149 C 
ATOM     36  CB  ALA A   5      23.094  56.245  40.365  0.00  0.00    +0.031 C 
BRANCH  35  37
ATOM     37  C   ALA A   5      21.188  56.788  41.862  0.00  0.00    +0.241 C 
ATOM     38  N   GLY A   6      21.539  57.488  42.922  0.00  0.00    -0.296 N 
ATOM     39  H   GLY A   6      22.370  57.235  43.494  0.00  0.00    +0.150 HD
ATOM     40  O   ALA A   5      20.156  57.011  41.195  0.00  0.00    -0.273 OA
BRANCH  38  41
ATOM     41  CA  GLY A   6      20.693  58.649  43.256  0.00  0.00    +0.163 C 
BRANCH  41  42
ATOM     42  C   GLY A   6      21.254  59.886  42.571  0.00  0.00    +0.229 C 
ATOM     43  O   GLY A   6      22.488  60.016  42.368  0.00  0.00    -0.286 OA
ENDBRANCH  41  42
ENDBRANCH  38  41
ENDBRANCH  35  37
ENDBRANCH  33  35
ENDBRANCH  30  31
BRANCH  30  44
ATOM     44  CB  TYR A   4      21.553  51.307  40.851  0.00  0.00    +0.055 C 
BRANCH  44  45
ATOM     45  CG  TYR A   4      21.100  49.934  40.391  0.00  0.00    -0.020 A 
ATOM     46  CD2 TYR A   4      19.968  49.313  40.936  0.00  0.00    -0.001 A 
ATOM     47  CE2 TYR A   4      19.555  48.008  40.495  0.00  0.00    +0.036 A 
ATOM     48  CZ  TYR A   4      20.321  47.332  39.524  0.00  0.00    +0.134 A 
ATOM     49  CE1 TYR A   4      21.459  47.931  38.977  0.00  0.00    +0.036 A 
ATOM     50  CD1 TYR A   4      21.855  49.226  39.421  0.00  0.00    -0.001 A 
BRANCH  48  51
ATOM     51  OH  TYR A   4      19.957  46.070  39.095  0.00  0.00    -0.506 OA
ATOM     52  HH  TYR A   4      19.137  45.784  39.571  0.00  0.00    +0.292 HD
ENDBRANCH  48  51
ENDBRANCH  44  45
ENDBRANCH  30  44
ENDBRANCH  28  30
ENDBRANCH   1  26
BRANCH   1  53
ATOM     53  CB  LYS A   3      16.954  52.579  38.103  0.00  0.00    +0.029 C 
BRANCH  53  54
ATOM     54  CG  LYS A   3      15.812  52.555  39.130  0.00  0.00    +0.000 C 
BRANCH  54  55
ATOM     55  CD  LYS A   3      14.814  51.465  38.678  0.00  0.00    -0.024 C 
BRANCH  55  56
ATOM     56  CE  LYS A   3      13.461  51.617  39.445  0.00  0.00    -0.086 C 
BRANCH  56  57
ATOM     57  NZ  LYS A   3      12.506  50.481  39.157  0.00  0.00    +0.380 N 
ATOM     58  HZ1 LYS A   3      11.624  50.628  39.689  0.00  0.00    -0.089 HD
ATOM     59  HZ2 LYS A   3      12.941  49.582  39.447  0.00  0.00    -0.089 HD
ATOM     60  HZ3 LYS A   3      12.298  50.455  38.138  0.00  0.00    -0.089 HD
ENDBRANCH  56  57
ENDBRANCH  55  56
ENDBRANCH  54  55
ENDBRANCH  53  54
ENDBRANCH   1  53
TORSDOF 24
REMARK  Name = ../refined-set-2016/2xeg/2xeg_pocket.pdb
REMARK  382 active torsions:
REMARK  status: ('A' for Active; 'I' for Inactive)
REMARK    1  A    between atoms: _1  and  _3
REMARK    2  A    between atoms: _3  and  _4
REMARK    3  A    between atoms: _7  and  _9
REMARK    4  A    between atoms: _9  and  _10
REMARK    5  A    between atoms: _9  and  _12
REMARK    6  A    between atoms: _12  and  _13
REMARK    7  A    between atoms: _19  and  _21
REMARK    8  A    between atoms: _21  and  _22
REMARK    9  A    between atoms: _21  and  _24
REMARK   10  A    between atoms: _24  and  _25
REMARK   11  A    between atoms: _30  and  _31
REMARK   12  A    between atoms: _33  and  _35
REMARK   13  A    between atoms: _35  and  _36
REMARK   14  A    between atoms: _38  and  _40
REMARK   15  A    between atoms: _40  and  _41
REMARK   16  A    between atoms: _40  and  _43
REMARK   17  A    between atoms: _43  and  _44
REMARK   18  A    between atoms: _44  and  _45
REMARK   19  A    between atoms: _45  and  _46
REMARK   20  A    between atoms: _46  and  _47
REMARK   21  A    between atoms: _51  and  _53
REMARK   22  A    between atoms: _53  and  _54
REMARK   23  A    between atoms: _53  and  _56
REMARK   24  A    between atoms: _59  and  _61
REMARK   25  A    between atoms: _61  and  _62
REMARK   26  A    between atoms: _61  and  _64
REMARK   27  A    between atoms: _64  and  _65
REMARK   28  A    between atoms: _71  and  _73
REMARK   29  A    between atoms: _73  and  _74
REMARK   30  A    between atoms: _73  and  _76
REMARK   31  A    between atoms: _76  and  _77
REMARK   32  A    between atoms: _77  and  _78
REMARK   33  A    between atoms: _78  and  _79
REMARK   34  A    between atoms: _88  and  _90
REMARK   35  A    between atoms: _90  and  _91
REMARK   36  A    between atoms: _93  and  _95
REMARK   37  A    between atoms: _95  and  _96
REMARK   38  A    between atoms: _95  and  _98
REMARK   39  A    between atoms: _98  and  _99
REMARK   40  A    between atoms: _99  and  _100
REMARK   41  A    between atoms: _100  and  _101
REMARK   42  A    between atoms: _101  and  _102
REMARK   43  A    between atoms: _106  and  _108
REMARK   44  A    between atoms: _108  and  _109
REMARK   45  A    between atoms: _108  and  _111
REMARK   46  A    between atoms: _111  and  _112
REMARK   47  A    between atoms: _115  and  _117
REMARK   48  A    between atoms: _117  and  _118
REMARK   49  A    between atoms: _117  and  _120
REMARK   50  A    between atoms: _120  and  _121
REMARK   51  A    between atoms: _126  and  _127
REMARK   52  A    between atoms: _129  and  _131
REMARK   53  A    between atoms: _131  and  _132
REMARK   54  A    between atoms: _131  and  _134
REMARK   55  A    between atoms: _134  and  _135
REMARK   56  A    between atoms: _135  and  _136
REMARK   57  A    between atoms: _141  and  _143
REMARK   58  A    between atoms: _143  and  _144
REMARK   59  A    between atoms: _143  and  _146
REMARK   60  A    between atoms: _146  and  _147
REMARK   61  A    between atoms: _147  and  _148
REMARK   62  A    between atoms: _148  and  _149
REMARK   63  A    between atoms: _158  and  _160
REMARK   64  A    between atoms: _160  and  _161
REMARK   65  A    between atoms: _163  and  _165
REMARK   66  A    between atoms: _165  and  _166
REMARK   67  A    between atoms: _165  and  _168
REMARK   68  A    between atoms: _168  and  _169
REMARK   69  A    between atoms: _174  and  _176
REMARK   70  A    between atoms: _176  and  _177
REMARK   71  A    between atoms: _176  and  _179
REMARK   72  A    between atoms: _179  and  _180
REMARK   73  A    between atoms: _183  and  _185
REMARK   74  A    between atoms: _185  and  _186
REMARK   75  A    between atoms: _185  and  _188
REMARK   76  A    between atoms: _188  and  _189
REMARK   77  A    between atoms: _192  and  _194
REMARK   78  A    between atoms: _194  and  _195
REMARK   79  A    between atoms: _194  and  _197
REMARK   80  A    between atoms: _197  and  _198
REMARK   81  A    between atoms: _203  and  _205
REMARK   82  A    between atoms: _205  and  _206
REMARK   83  A    between atoms: _205  and  _208
REMARK   84  A    between atoms: _208  and  _209
REMARK   85  A    between atoms: _212  and  _214
REMARK   86  A    between atoms: _214  and  _215
REMARK   87  A    between atoms: _214  and  _217
REMARK   88  A    between atoms: _217  and  _218
REMARK   89  A    between atoms: _223  and  _225
REMARK   90  A    between atoms: _225  and  _226
REMARK   91  A    between atoms: _228  and  _230
REMARK   92  A    between atoms: _230  and  _231
REMARK   93  A    between atoms: _230  and  _233
REMARK   94  A    between atoms: _233  and  _234
REMARK   95  A    between atoms: _238  and  ZN_939
REMARK   96  A    between atoms: _239  and  _241
REMARK   97  A    between atoms: _241  and  _242
REMARK   98  A    between atoms: _241  and  _244
REMARK   99  A    between atoms: _244  and  _245
REMARK  100  A    between atoms: _248  and  _250
REMARK  101  A    between atoms: _250  and  _251
REMARK  102  A    between atoms: _250  and  _253
REMARK  103  A    between atoms: _253  and  _254
REMARK  104  A    between atoms: _264  and  _266
REMARK  105  A    between atoms: _266  and  _267
REMARK  106  A    between atoms: _266  and  _269
REMARK  107  A    between atoms: _269  and  _270
REMARK  108  A    between atoms: _273  and  _275
REMARK  109  A    between atoms: _275  and  _276
REMARK  110  A    between atoms: _275  and  _278
REMARK  111  A    between atoms: _278  and  _279
REMARK  112  A    between atoms: _279  and  _280
REMARK  113  A    between atoms: _279  and  _281
REMARK  114  A    between atoms: _280  and  ZN_939
REMARK  115  A    between atoms: _281  and  ZN_938
REMARK  116  A    between atoms: _283  and  _284
REMARK  117  A    between atoms: _289  and  _291
REMARK  118  A    between atoms: _291  and  _292
REMARK  119  A    between atoms: _295  and  _297
REMARK  120  A    between atoms: _297  and  _298
REMARK  121  A    between atoms: _297  and  _300
REMARK  122  A    between atoms: _300  and  _301
REMARK  123  A    between atoms: _301  and  _302
REMARK  124  A    between atoms: _305  and  _307
REMARK  125  A    between atoms: _307  and  _308
REMARK  126  A    between atoms: _307  and  _310
REMARK  127  A    between atoms: _310  and  _311
REMARK  128  A    between atoms: _311  and  _312
REMARK  129  A    between atoms: _312  and  _314
REMARK  130  A    between atoms: _314  and  ZN_938
REMARK  131  A    between atoms: _315  and  _317
REMARK  132  A    between atoms: _317  and  _318
REMARK  133  A    between atoms: _317  and  _320
REMARK  134  A    between atoms: _320  and  _321
REMARK  135  A    between atoms: _327  and  _329
REMARK  136  A    between atoms: _329  and  _330
REMARK  137  A    between atoms: _332  and  _334
REMARK  138  A    between atoms: _334  and  _335
REMARK  139  A    between atoms: _334  and  _337
REMARK  140  A    between atoms: _337  and  _338
REMARK  141  A    between atoms: _341  and  _343
REMARK  142  A    between atoms: _343  and  _344
REMARK  143  A    between atoms: _343  and  _346
REMARK  144  A    between atoms: _346  and  _347
REMARK  145  A    between atoms: _350  and  _352
REMARK  146  A    between atoms: _352  and  _353
REMARK  147  A    between atoms: _352  and  _355
REMARK  148  A    between atoms: _355  and  _356
REMARK  149  A    between atoms: _361  and  _363
REMARK  150  A    between atoms: _363  and  _364
REMARK  151  A    between atoms: _363  and  _366
REMARK  152  A    between atoms: _366  and  _367
REMARK  153  A    between atoms: _367  and  _369
REMARK  154  A    between atoms: _369  and  ZN_939
REMARK  155  A    between atoms: _370  and  _372
REMARK  156  A    between atoms: _372  and  _373
REMARK  157  A    between atoms: _372  and  _375
REMARK  158  A    between atoms: _375  and  _376
REMARK  159  A    between atoms: _378  and  _380
REMARK  160  A    between atoms: _380  and  _381
REMARK  161  A    between atoms: _380  and  _383
REMARK  162  A    between atoms: _383  and  _384
REMARK  163  A    between atoms: _386  and  _388
REMARK  164  A    between atoms: _388  and  _389
REMARK  165  A    between atoms: _388  and  _391
REMARK  166  A    between atoms: _391  and  _392
REMARK  167  A    between atoms: _395  and  _397
REMARK  168  A    between atoms: _397  and  _398
REMARK  169  A    between atoms: _397  and  _400
REMARK  170  A    between atoms: _400  and  _401
REMARK  171  A    between atoms: _401  and  _402
REMARK  172  A    between atoms: _405  and  _407
REMARK  173  A    between atoms: _407  and  _408
REMARK  174  A    between atoms: _407  and  _410
REMARK  175  A    between atoms: _410  and  _411
REMARK  176  A    between atoms: _416  and  _417
REMARK  177  A    between atoms: _419  and  _421
REMARK  178  A    between atoms: _421  and  _422
REMARK  179  A    between atoms: _421  and  _424
REMARK  180  A    between atoms: _424  and  _425
REMARK  181  A    between atoms: _428  and  _430
REMARK  182  A    between atoms: _430  and  _431
REMARK  183  A    between atoms: _430  and  _433
REMARK  184  A    between atoms: _433  and  _434
REMARK  185  A    between atoms: _437  and  _439
REMARK  186  A    between atoms: _439  and  _440
REMARK  187  A    between atoms: _439  and  _442
REMARK  188  A    between atoms: _442  and  _443
REMARK  189  A    between atoms: _443  and  _444
REMARK  190  A    between atoms: _444  and  _445
REMARK  191  A    between atoms: _454  and  _456
REMARK  192  A    between atoms: _456  and  _457
REMARK  193  A    between atoms: _456  and  _459
REMARK  194  A    between atoms: _462  and  _464
REMARK  195  A    between atoms: _464  and  _465
REMARK  196  A    between atoms: _464  and  _467
REMARK  197  A    between atoms: _467  and  _468
REMARK  198  A    between atoms: _471  and  _473
REMARK  199  A    between atoms: _473  and  _474
REMARK  200  A    between atoms: _473  and  _476
REMARK  201  A    between atoms: _476  and  _477
REMARK  202  A    between atoms: _487  and  _489
REMARK  203  A    between atoms: _489  and  _490
REMARK  204  A    between atoms: _489  and  _492
REMARK  205  A    between atoms: _492  and  _493
REMARK  206  A    between atoms: _493  and  _494
REMARK  207  A    between atoms: _494  and  _495
REMARK  208  A    between atoms: _495  and  _496
REMARK  209  A    between atoms: _500  and  _502
REMARK  210  A    between atoms: _502  and  _503
REMARK  211  A    between atoms: _502  and  _505
REMARK  212  A    between atoms: _505  and  _506
REMARK  213  A    between atoms: _509  and  _510
REMARK  214  A    between atoms: _516  and  _517
REMARK  215  A    between atoms: _522  and  _524
REMARK  216  A    between atoms: _524  and  _525
REMARK  217  A    between atoms: _524  and  _527
REMARK  218  A    between atoms: _527  and  _528
REMARK  219  A    between atoms: _528  and  _529
REMARK  220  A    between atoms: _529  and  _530
REMARK  221  A    between atoms: _539  and  _541
REMARK  222  A    between atoms: _541  and  _542
REMARK  223  A    between atoms: _541  and  _544
REMARK  224  A    between atoms: _544  and  _545
REMARK  225  A    between atoms: _548  and  _550
REMARK  226  A    between atoms: _550  and  _551
REMARK  227  A    between atoms: _550  and  _553
REMARK  228  A    between atoms: _553  and  _554
REMARK  229  A    between atoms: _556  and  _558
REMARK  230  A    between atoms: _558  and  _559
REMARK  231  A    between atoms: _558  and  _561
REMARK  232  A    between atoms: _561  and  _562
REMARK  233  A    between atoms: _562  and  _563
REMARK  234  A    between atoms: _563  and  _564
REMARK  235  A    between atoms: _564  and  _565
REMARK  236  A    between atoms: _569  and  _571
REMARK  237  A    between atoms: _571  and  _572
REMARK  238  A    between atoms: _571  and  _574
REMARK  239  A    between atoms: _574  and  _575
REMARK  240  A    between atoms: _578  and  _580
REMARK  241  A    between atoms: _580  and  _581
REMARK  242  A    between atoms: _583  and  _585
REMARK  243  A    between atoms: _585  and  _586
REMARK  244  A    between atoms: _585  and  _588
REMARK  245  A    between atoms: _588  and  _589
REMARK  246  A    between atoms: _591  and  _593
REMARK  247  A    between atoms: _593  and  _594
REMARK  248  A    between atoms: _596  and  _598
REMARK  249  A    between atoms: _598  and  _599
REMARK  250  A    between atoms: _598  and  _601
REMARK  251  A    between atoms: _601  and  _602
REMARK  252  A    between atoms: _607  and  _609
REMARK  253  A    between atoms: _609  and  _610
REMARK  254  A    between atoms: _609  and  _612
REMARK  255  A    between atoms: _612  and  _613
REMARK  256  A    between atoms: _616  and  _618
REMARK  257  A    between atoms: _618  and  _619
REMARK  258  A    between atoms: _618  and  _621
REMARK  259  A    between atoms: _621  and  _622
REMARK  260  A    between atoms: _628  and  _630
REMARK  261  A    between atoms: _630  and  _631
REMARK  262  A    between atoms: _630  and  _633
REMARK  263  A    between atoms: _633  and  _634
REMARK  264  A    between atoms: _634  and  _635
REMARK  265  A    between atoms: _638  and  _640
REMARK  266  A    between atoms: _640  and  _641
REMARK  267  A    between atoms: _640  and  _643
REMARK  268  A    between atoms: _643  and  _644
REMARK  269  A    between atoms: _644  and  _645
REMARK  270  A    between atoms: _645  and  _646
REMARK  271  A    between atoms: _655  and  _657
REMARK  272  A    between atoms: _657  and  _658
REMARK  273  A    between atoms: _657  and  _660
REMARK  274  A    between atoms: _660  and  _661
REMARK  275  A    between atoms: _661  and  _662
REMARK  276  A    between atoms: _662  and  _663
REMARK  277  A    between atoms: _672  and  _674
REMARK  278  A    between atoms: _674  and  _675
REMARK  279  A    between atoms: _674  and  _677
REMARK  280  A    between atoms: _677  and  _678
REMARK  281  A    between atoms: _683  and  _684
REMARK  282  A    between atoms: _686  and  _688
REMARK  283  A    between atoms: _688  and  _689
REMARK  284  A    between atoms: _688  and  _691
REMARK  285  A    between atoms: _691  and  _692
REMARK  286  A    between atoms: _695  and  _697
REMARK  287  A    between atoms: _697  and  _698
REMARK  288  A    between atoms: _697  and  _700
REMARK  289  A    between atoms: _700  and  _701
REMARK  290  A    between atoms: _701  and  _702
REMARK  291  A    between atoms: _702  and  _703
REMARK  292  A    between atoms: _703  and  _704
REMARK  293  A    between atoms: _708  and  _710
REMARK  294  A    between atoms: _710  and  _711
REMARK  295  A    between atoms: _710  and  _713
REMARK  296  A    between atoms: _713  and  _714
REMARK  297  A    between atoms: _719  and  _721
REMARK  298  A    between atoms: _721  and  _722
REMARK  299  A    between atoms: _721  and  _724
REMARK  300  A    between atoms: _724  and  _725
REMARK  301  A    between atoms: _735  and  _737
REMARK  302  A    between atoms: _737  and  _738
REMARK  303  A    between atoms: _737  and  _740
REMARK  304  A    between atoms: _740  and  _741
REMARK  305  A    between atoms: _741  and  _742
REMARK  306  A    between atoms: _745  and  _747
REMARK  307  A    between atoms: _747  and  _748
REMARK  308  A    between atoms: _747  and  _750
REMARK  309  A    between atoms: _750  and  _751
REMARK  310  A    between atoms: _754  and  _756
REMARK  311  A    between atoms: _756  and  _757
REMARK  312  A    between atoms: _756  and  _759
REMARK  313  A    between atoms: _759  and  _760
REMARK  314  A    between atoms: _765  and  _767
REMARK  315  A    between atoms: _767  and  _768
REMARK  316  A    between atoms: _767  and  _770
REMARK  317  A    between atoms: _770  and  _771
REMARK  318  A    between atoms: _777  and  _779
REMARK  319  A    between atoms: _779  and  _780
REMARK  320  A    between atoms: _779  and  _782
REMARK  321  A    between atoms: _782  and  _783
REMARK  322  A    between atoms: _785  and  _787
REMARK  323  A    between atoms: _787  and  _788
REMARK  324  A    between atoms: _790  and  _792
REMARK  325  A    between atoms: _792  and  _793
REMARK  326  A    between atoms: _792  and  _795
REMARK  327  A    between atoms: _795  and  _796
REMARK  328  A    between atoms: _801  and  _802
REMARK  329  A    between atoms: _804  and  _806
REMARK  330  A    between atoms: _806  and  _807
REMARK  331  A    between atoms: _806  and  _809
REMARK  332  A    between atoms: _809  and  _810
REMARK  333  A    between atoms: _815  and  _816
REMARK  334  A    between atoms: _818  and  _820
REMARK  335  A    between atoms: _820  and  _821
REMARK  336  A    between atoms: _820  and  _823
REMARK  337  A    between atoms: _823  and  _824
REMARK  338  A    between atoms: _828  and  ZN_938
REMARK  339  A    between atoms: _829  and  _831
REMARK  340  A    between atoms: _831  and  _832
REMARK  341  A    between atoms: _831  and  _834
REMARK  342  A    between atoms: _834  and  _835
REMARK  343  A    between atoms: _835  and  _836
REMARK  344  A    between atoms: _839  and  _841
REMARK  345  A    between atoms: _841  and  _842
REMARK  346  A    between atoms: _841  and  _844
REMARK  347  A    between atoms: _844  and  _845
REMARK  348  A    between atoms: _845  and  _846
REMARK  349  A    between atoms: _846  and  _847
REMARK  350  A    between atoms: _856  and  _858
REMARK  351  A    between atoms: _858  and  _859
REMARK  352  A    between atoms: _858  and  _861
REMARK  353  A    between atoms: _861  and  _862
REMARK  354  A    between atoms: _867  and  _868
REMARK  355  A    between atoms: _870  and  _872
REMARK  356  A    between atoms: _872  and  _873
REMARK  357  A    between atoms: _872  and  _875
REMARK  358  A    between atoms: _875  and  _876
REMARK  359  A    between atoms: _878  and  _880
REMARK  360  A    between atoms: _880  and  _881
REMARK  361  A    between atoms: _880  and  _883
REMARK  362  A    between atoms: _883  and  _884
REMARK  363  A    between atoms: _889  and  _891
REMARK  364  A    between atoms: _891  and  _892
REMARK  365  A    between atoms: _891  and  _894
REMARK  366  A    between atoms: _894  and  _895
REMARK  367  A    between atoms: _900  and  _902
REMARK  368  A    between atoms: _902  and  _903
REMARK  369  A    between atoms: _902  and  _905
REMARK  370  A    between atoms: _905  and  _906
REMARK  371  A    between atoms: _906  and  _907
REMARK  372  A    between atoms: _907  and  _908
REMARK  373  A    between atoms: _908  and  _909
REMARK  374  A    between atoms: _913  and  _915
REMARK  375  A    between atoms: _915  and  _916
REMARK  376  A    between atoms: _915  and  _918
REMARK  377  A    between atoms: _918  and  _919
REMARK  378  A    between atoms: _924  and  _925
REMARK  379  A    between atoms: _927  and  _929
REMARK  380  A    between atoms: _929  and  _930
REMARK  381  A    between atoms: _933  and  _935
REMARK  382  A    between atoms: _935  and  _936
REMARK                            x       y       z     vdW  Elec       q    Type
REMARK                         _______ _______ _______ _____ _____    ______ ____
ROOT
ATOM      1  O   HOH     1      14.404  38.051  34.916  0.00  0.00    +0.000 OA
ENDROOT
TORSDOF 0
REMARK  Name = ../refined-set-2016/2xeg/2xeg_pocket.pdb
REMARK  382 active torsions:
REMARK  status: ('A' for Active; 'I' for Inactive)
REMARK    1  A    between atoms: _1  and  _3
REMARK    2  A    between atoms: _3  and  _4
REMARK    3  A    between atoms: _7  and  _9
REMARK    4  A    between atoms: _9  and  _10
REMARK    5  A    between atoms: _9  and  _12
REMARK    6  A    between atoms: _12  and  _13
REMARK    7  A    between atoms: _19  and  _21
REMARK    8  A    between atoms: _21  and  _22
REMARK    9  A    between atoms: _21  and  _24
REMARK   10  A    between atoms: _24  and  _25
REMARK   11  A    between atoms: _30  and  _31
REMARK   12  A    between atoms: _33  and  _35
REMARK   13  A    between atoms: _35  and  _36
REMARK   14  A    between atoms: _38  and  _40
REMARK   15  A    between atoms: _40  and  _41
REMARK   16  A    between atoms: _40  and  _43
REMARK   17  A    between atoms: _43  and  _44
REMARK   18  A    between atoms: _44  and  _45
REMARK   19  A    between atoms: _45  and  _46
REMARK   20  A    between atoms: _46  and  _47
REMARK   21  A    between atoms: _51  and  _53
REMARK   22  A    between atoms: _53  and  _54
REMARK   23  A    between atoms: _53  and  _56
REMARK   24  A    between atoms: _59  and  _61
REMARK   25  A    between atoms: _61  and  _62
REMARK   26  A    between atoms: _61  and  _64
REMARK   27  A    between atoms: _64  and  _65
REMARK   28  A    between atoms: _71  and  _73
REMARK   29  A    between atoms: _73  and  _74
REMARK   30  A    between atoms: _73  and  _76
REMARK   31  A    between atoms: _76  and  _77
REMARK   32  A    between atoms: _77  and  _78
REMARK   33  A    between atoms: _78  and  _79
REMARK   34  A    between atoms: _88  and  _90
REMARK   35  A    between atoms: _90  and  _91
REMARK   36  A    between atoms: _93  and  _95
REMARK   37  A    between atoms: _95  and  _96
REMARK   38  A    between atoms: _95  and  _98
REMARK   39  A    between atoms: _98  and  _99
REMARK   40  A    between atoms: _99  and  _100
REMARK   41  A    between atoms: _100  and  _101
REMARK   42  A    between atoms: _101  and  _102
REMARK   43  A    between atoms: _106  and  _108
REMARK   44  A    between atoms: _108  and  _109
REMARK   45  A    between atoms: _108  and  _111
REMARK   46  A    between atoms: _111  and  _112
REMARK   47  A    between atoms: _115  and  _117
REMARK   48  A    between atoms: _117  and  _118
REMARK   49  A    between atoms: _117  and  _120
REMARK   50  A    between atoms: _120  and  _121
REMARK   51  A    between atoms: _126  and  _127
REMARK   52  A    between atoms: _129  and  _131
REMARK   53  A    between atoms: _131  and  _132
REMARK   54  A    between atoms: _131  and  _134
REMARK   55  A    between atoms: _134  and  _135
REMARK   56  A    between atoms: _135  and  _136
REMARK   57  A    between atoms: _141  and  _143
REMARK   58  A    between atoms: _143  and  _144
REMARK   59  A    between atoms: _143  and  _146
REMARK   60  A    between atoms: _146  and  _147
REMARK   61  A    between atoms: _147  and  _148
REMARK   62  A    between atoms: _148  and  _149
REMARK   63  A    between atoms: _158  and  _160
REMARK   64  A    between atoms: _160  and  _161
REMARK   65  A    between atoms: _163  and  _165
REMARK   66  A    between atoms: _165  and  _166
REMARK   67  A    between atoms: _165  and  _168
REMARK   68  A    between atoms: _168  and  _169
REMARK   69  A    between atoms: _174  and  _176
REMARK   70  A    between atoms: _176  and  _177
REMARK   71  A    between atoms: _176  and  _179
REMARK   72  A    between atoms: _179  and  _180
REMARK   73  A    between atoms: _183  and  _185
REMARK   74  A    between atoms: _185  and  _186
REMARK   75  A    between atoms: _185  and  _188
REMARK   76  A    between atoms: _188  and  _189
REMARK   77  A    between atoms: _192  and  _194
REMARK   78  A    between atoms: _194  and  _195
REMARK   79  A    between atoms: _194  and  _197
REMARK   80  A    between atoms: _197  and  _198
REMARK   81  A    between atoms: _203  and  _205
REMARK   82  A    between atoms: _205  and  _206
REMARK   83  A    between atoms: _205  and  _208
REMARK   84  A    between atoms: _208  and  _209
REMARK   85  A    between atoms: _212  and  _214
REMARK   86  A    between atoms: _214  and  _215
REMARK   87  A    between atoms: _214  and  _217
REMARK   88  A    between atoms: _217  and  _218
REMARK   89  A    between atoms: _223  and  _225
REMARK   90  A    between atoms: _225  and  _226
REMARK   91  A    between atoms: _228  and  _230
REMARK   92  A    between atoms: _230  and  _231
REMARK   93  A    between atoms: _230  and  _233
REMARK   94  A    between atoms: _233  and  _234
REMARK   95  A    between atoms: _238  and  ZN_939
REMARK   96  A    between atoms: _239  and  _241
REMARK   97  A    between atoms: _241  and  _242
REMARK   98  A    between atoms: _241  and  _244
REMARK   99  A    between atoms: _244  and  _245
REMARK  100  A    between atoms: _248  and  _250
REMARK  101  A    between atoms: _250  and  _251
REMARK  102  A    between atoms: _250  and  _253
REMARK  103  A    between atoms: _253  and  _254
REMARK  104  A    between atoms: _264  and  _266
REMARK  105  A    between atoms: _266  and  _267
REMARK  106  A    between atoms: _266  and  _269
REMARK  107  A    between atoms: _269  and  _270
REMARK  108  A    between atoms: _273  and  _275
REMARK  109  A    between atoms: _275  and  _276
REMARK  110  A    between atoms: _275  and  _278
REMARK  111  A    between atoms: _278  and  _279
REMARK  112  A    between atoms: _279  and  _280
REMARK  113  A    between atoms: _279  and  _281
REMARK  114  A    between atoms: _280  and  ZN_939
REMARK  115  A    between atoms: _281  and  ZN_938
REMARK  116  A    between atoms: _283  and  _284
REMARK  117  A    between atoms: _289  and  _291
REMARK  118  A    between atoms: _291  and  _292
REMARK  119  A    between atoms: _295  and  _297
REMARK  120  A    between atoms: _297  and  _298
REMARK  121  A    between atoms: _297  and  _300
REMARK  122  A    between atoms: _300  and  _301
REMARK  123  A    between atoms: _301  and  _302
REMARK  124  A    between atoms: _305  and  _307
REMARK  125  A    between atoms: _307  and  _308
REMARK  126  A    between atoms: _307  and  _310
REMARK  127  A    between atoms: _310  and  _311
REMARK  128  A    between atoms: _311  and  _312
REMARK  129  A    between atoms: _312  and  _314
REMARK  130  A    between atoms: _314  and  ZN_938
REMARK  131  A    between atoms: _315  and  _317
REMARK  132  A    between atoms: _317  and  _318
REMARK  133  A    between atoms: _317  and  _320
REMARK  134  A    between atoms: _320  and  _321
REMARK  135  A    between atoms: _327  and  _329
REMARK  136  A    between atoms: _329  and  _330
REMARK  137  A    between atoms: _332  and  _334
REMARK  138  A    between atoms: _334  and  _335
REMARK  139  A    between atoms: _334  and  _337
REMARK  140  A    between atoms: _337  and  _338
REMARK  141  A    between atoms: _341  and  _343
REMARK  142  A    between atoms: _343  and  _344
REMARK  143  A    between atoms: _343  and  _346
REMARK  144  A    between atoms: _346  and  _347
REMARK  145  A    between atoms: _350  and  _352
REMARK  146  A    between atoms: _352  and  _353
REMARK  147  A    between atoms: _352  and  _355
REMARK  148  A    between atoms: _355  and  _356
REMARK  149  A    between atoms: _361  and  _363
REMARK  150  A    between atoms: _363  and  _364
REMARK  151  A    between atoms: _363  and  _366
REMARK  152  A    between atoms: _366  and  _367
REMARK  153  A    between atoms: _367  and  _369
REMARK  154  A    between atoms: _369  and  ZN_939
REMARK  155  A    between atoms: _370  and  _372
REMARK  156  A    between atoms: _372  and  _373
REMARK  157  A    between atoms: _372  and  _375
REMARK  158  A    between atoms: _375  and  _376
REMARK  159  A    between atoms: _378  and  _380
REMARK  160  A    between atoms: _380  and  _381
REMARK  161  A    between atoms: _380  and  _383
REMARK  162  A    between atoms: _383  and  _384
REMARK  163  A    between atoms: _386  and  _388
REMARK  164  A    between atoms: _388  and  _389
REMARK  165  A    between atoms: _388  and  _391
REMARK  166  A    between atoms: _391  and  _392
REMARK  167  A    between atoms: _395  and  _397
REMARK  168  A    between atoms: _397  and  _398
REMARK  169  A    between atoms: _397  and  _400
REMARK  170  A    between atoms: _400  and  _401
REMARK  171  A    between atoms: _401  and  _402
REMARK  172  A    between atoms: _405  and  _407
REMARK  173  A    between atoms: _407  and  _408
REMARK  174  A    between atoms: _407  and  _410
REMARK  175  A    between atoms: _410  and  _411
REMARK  176  A    between atoms: _416  and  _417
REMARK  177  A    between atoms: _419  and  _421
REMARK  178  A    between atoms: _421  and  _422
REMARK  179  A    between atoms: _421  and  _424
REMARK  180  A    between atoms: _424  and  _425
REMARK  181  A    between atoms: _428  and  _430
REMARK  182  A    between atoms: _430  and  _431
REMARK  183  A    between atoms: _430  and  _433
REMARK  184  A    between atoms: _433  and  _434
REMARK  185  A    between atoms: _437  and  _439
REMARK  186  A    between atoms: _439  and  _440
REMARK  187  A    between atoms: _439  and  _442
REMARK  188  A    between atoms: _442  and  _443
REMARK  189  A    between atoms: _443  and  _444
REMARK  190  A    between atoms: _444  and  _445
REMARK  191  A    between atoms: _454  and  _456
REMARK  192  A    between atoms: _456  and  _457
REMARK  193  A    between atoms: _456  and  _459
REMARK  194  A    between atoms: _462  and  _464
REMARK  195  A    between atoms: _464  and  _465
REMARK  196  A    between atoms: _464  and  _467
REMARK  197  A    between atoms: _467  and  _468
REMARK  198  A    between atoms: _471  and  _473
REMARK  199  A    between atoms: _473  and  _474
REMARK  200  A    between atoms: _473  and  _476
REMARK  201  A    between atoms: _476  and  _477
REMARK  202  A    between atoms: _487  and  _489
REMARK  203  A    between atoms: _489  and  _490
REMARK  204  A    between atoms: _489  and  _492
REMARK  205  A    between atoms: _492  and  _493
REMARK  206  A    between atoms: _493  and  _494
REMARK  207  A    between atoms: _494  and  _495
REMARK  208  A    between atoms: _495  and  _496
REMARK  209  A    between atoms: _500  and  _502
REMARK  210  A    between atoms: _502  and  _503
REMARK  211  A    between atoms: _502  and  _505
REMARK  212  A    between atoms: _505  and  _506
REMARK  213  A    between atoms: _509  and  _510
REMARK  214  A    between atoms: _516  and  _517
REMARK  215  A    between atoms: _522  and  _524
REMARK  216  A    between atoms: _524  and  _525
REMARK  217  A    between atoms: _524  and  _527
REMARK  218  A    between atoms: _527  and  _528
REMARK  219  A    between atoms: _528  and  _529
REMARK  220  A    between atoms: _529  and  _530
REMARK  221  A    between atoms: _539  and  _541
REMARK  222  A    between atoms: _541  and  _542
REMARK  223  A    between atoms: _541  and  _544
REMARK  224  A    between atoms: _544  and  _545
REMARK  225  A    between atoms: _548  and  _550
REMARK  226  A    between atoms: _550  and  _551
REMARK  227  A    between atoms: _550  and  _553
REMARK  228  A    between atoms: _553  and  _554
REMARK  229  A    between atoms: _556  and  _558
REMARK  230  A    between atoms: _558  and  _559
REMARK  231  A    between atoms: _558  and  _561
REMARK  232  A    between atoms: _561  and  _562
REMARK  233  A    between atoms: _562  and  _563
REMARK  234  A    between atoms: _563  and  _564
REMARK  235  A    between atoms: _564  and  _565
REMARK  236  A    between atoms: _569  and  _571
REMARK  237  A    between atoms: _571  and  _572
REMARK  238  A    between atoms: _571  and  _574
REMARK  239  A    between atoms: _574  and  _575
REMARK  240  A    between atoms: _578  and  _580
REMARK  241  A    between atoms: _580  and  _581
REMARK  242  A    between atoms: _583  and  _585
REMARK  243  A    between atoms: _585  and  _586
REMARK  244  A    between atoms: _585  and  _588
REMARK  245  A    between atoms: _588  and  _589
REMARK  246  A    between atoms: _591  and  _593
REMARK  247  A    between atoms: _593  and  _594
REMARK  248  A    between atoms: _596  and  _598
REMARK  249  A    between atoms: _598  and  _599
REMARK  250  A    between atoms: _598  and  _601
REMARK  251  A    between atoms: _601  and  _602
REMARK  252  A    between atoms: _607  and  _609
REMARK  253  A    between atoms: _609  and  _610
REMARK  254  A    between atoms: _609  and  _612
REMARK  255  A    between atoms: _612  and  _613
REMARK  256  A    between atoms: _616  and  _618
REMARK  257  A    between atoms: _618  and  _619
REMARK  258  A    between atoms: _618  and  _621
REMARK  259  A    between atoms: _621  and  _622
REMARK  260  A    between atoms: _628  and  _630
REMARK  261  A    between atoms: _630  and  _631
REMARK  262  A    between atoms: _630  and  _633
REMARK  263  A    between atoms: _633  and  _634
REMARK  264  A    between atoms: _634  and  _635
REMARK  265  A    between atoms: _638  and  _640
REMARK  266  A    between atoms: _640  and  _641
REMARK  267  A    between atoms: _640  and  _643
REMARK  268  A    between atoms: _643  and  _644
REMARK  269  A    between atoms: _644  and  _645
REMARK  270  A    between atoms: _645  and  _646
REMARK  271  A    between atoms: _655  and  _657
REMARK  272  A    between atoms: _657  and  _658
REMARK  273  A    between atoms: _657  and  _660
REMARK  274  A    between atoms: _660  and  _661
REMARK  275  A    between atoms: _661  and  _662
REMARK  276  A    between atoms: _662  and  _663
REMARK  277  A    between atoms: _672  and  _674
REMARK  278  A    between atoms: _674  and  _675
REMARK  279  A    between atoms: _674  and  _677
REMARK  280  A    between atoms: _677  and  _678
REMARK  281  A    between atoms: _683  and  _684
REMARK  282  A    between atoms: _686  and  _688
REMARK  283  A    between atoms: _688  and  _689
REMARK  284  A    between atoms: _688  and  _691
REMARK  285  A    between atoms: _691  and  _692
REMARK  286  A    between atoms: _695  and  _697
REMARK  287  A    between atoms: _697  and  _698
REMARK  288  A    between atoms: _697  and  _700
REMARK  289  A    between atoms: _700  and  _701
REMARK  290  A    between atoms: _701  and  _702
REMARK  291  A    between atoms: _702  and  _703
REMARK  292  A    between atoms: _703  and  _704
REMARK  293  A    between atoms: _708  and  _710
REMARK  294  A    between atoms: _710  and  _711
REMARK  295  A    between atoms: _710  and  _713
REMARK  296  A    between atoms: _713  and  _714
REMARK  297  A    between atoms: _719  and  _721
REMARK  298  A    between atoms: _721  and  _722
REMARK  299  A    between atoms: _721  and  _724
REMARK  300  A    between atoms: _724  and  _725
REMARK  301  A    between atoms: _735  and  _737
REMARK  302  A    between atoms: _737  and  _738
REMARK  303  A    between atoms: _737  and  _740
REMARK  304  A    between atoms: _740  and  _741
REMARK  305  A    between atoms: _741  and  _742
REMARK  306  A    between atoms: _745  and  _747
REMARK  307  A    between atoms: _747  and  _748
REMARK  308  A    between atoms: _747  and  _750
REMARK  309  A    between atoms: _750  and  _751
REMARK  310  A    between atoms: _754  and  _756
REMARK  311  A    between atoms: _756  and  _757
REMARK  312  A    between atoms: _756  and  _759
REMARK  313  A    between atoms: _759  and  _760
REMARK  314  A    between atoms: _765  and  _767
REMARK  315  A    between atoms: _767  and  _768
REMARK  316  A    between atoms: _767  and  _770
REMARK  317  A    between atoms: _770  and  _771
REMARK  318  A    between atoms: _777  and  _779
REMARK  319  A    between atoms: _779  and  _780
REMARK  320  A    between atoms: _779  and  _782
REMARK  321  A    between atoms: _782  and  _783
REMARK  322  A    between atoms: _785  and  _787
REMARK  323  A    between atoms: _787  and  _788
REMARK  324  A    between atoms: _790  and  _792
REMARK  325  A    between atoms: _792  and  _793
REMARK  326  A    between atoms: _792  and  _795
REMARK  327  A    between atoms: _795  and  _796
REMARK  328  A    between atoms: _801  and  _802
REMARK  329  A    between atoms: _804  and  _806
REMARK  330  A    between atoms: _806  and  _807
REMARK  331  A    between atoms: _806  and  _809
REMARK  332  A    between atoms: _809  and  _810
REMARK  333  A    between atoms: _815  and  _816
REMARK  334  A    between atoms: _818  and  _820
REMARK  335  A    between atoms: _820  and  _821
REMARK  336  A    between atoms: _820  and  _823
REMARK  337  A    between atoms: _823  and  _824
REMARK  338  A    between atoms: _828  and  ZN_938
REMARK  339  A    between atoms: _829  and  _831
REMARK  340  A    between atoms: _831  and  _832
REMARK  341  A    between atoms: _831  and  _834
REMARK  342  A    between atoms: _834  and  _835
REMARK  343  A    between atoms: _835  and  _836
REMARK  344  A    between atoms: _839  and  _841
REMARK  345  A    between atoms: _841  and  _842
REMARK  346  A    between atoms: _841  and  _844
REMARK  347  A    between atoms: _844  and  _845
REMARK  348  A    between atoms: _845  and  _846
REMARK  349  A    between atoms: _846  and  _847
REMARK  350  A    between atoms: _856  and  _858
REMARK  351  A    between atoms: _858  and  _859
REMARK  352  A    between atoms: _858  and  _861
REMARK  353  A    between atoms: _861  and  _862
REMARK  354  A    between atoms: _867  and  _868
REMARK  355  A    between atoms: _870  and  _872
REMARK  356  A    between atoms: _872  and  _873
REMARK  357  A    between atoms: _872  and  _875
REMARK  358  A    between atoms: _875  and  _876
REMARK  359  A    between atoms: _878  and  _880
REMARK  360  A    between atoms: _880  and  _881
REMARK  361  A    between atoms: _880  and  _883
REMARK  362  A    between atoms: _883  and  _884
REMARK  363  A    between atoms: _889  and  _891
REMARK  364  A    between atoms: _891  and  _892
REMARK  365  A    between atoms: _891  and  _894
REMARK  366  A    between atoms: _894  and  _895
REMARK  367  A    between atoms: _900  and  _902
REMARK  368  A    between atoms: _902  and  _903
REMARK  369  A    between atoms: _902  and  _905
REMARK  370  A    between atoms: _905  and  _906
REMARK  371  A    between atoms: _906  and  _907
REMARK  372  A    between atoms: _907  and  _908
REMARK  373  A    between atoms: _908  and  _909
REMARK  374  A    between atoms: _913  and  _915
REMARK  375  A    between atoms: _915  and  _916
REMARK  376  A    between atoms: _915  and  _918
REMARK  377  A    between atoms: _918  and  _919
REMARK  378  A    between atoms: _924  and  _925
REMARK  379  A    between atoms: _927  and  _929
REMARK  380  A    between atoms: _929  and  _930
REMARK  381  A    between atoms: _933  and  _935
REMARK  382  A    between atoms: _935  and  _936
REMARK                            x       y       z     vdW  Elec       q    Type
REMARK                         _______ _______ _______ _____ _____    ______ ____
ROOT
ATOM      1  O   HOH     1      17.751  40.533  32.278  0.00  0.00    +0.000 OA
ENDROOT
TORSDOF 0
REMARK  Name = ../refined-set-2016/2xeg/2xeg_pocket.pdb
REMARK  382 active torsions:
REMARK  status: ('A' for Active; 'I' for Inactive)
REMARK    1  A    between atoms: _1  and  _3
REMARK    2  A    between atoms: _3  and  _4
REMARK    3  A    between atoms: _7  and  _9
REMARK    4  A    between atoms: _9  and  _10
REMARK    5  A    between atoms: _9  and  _12
REMARK    6  A    between atoms: _12  and  _13
REMARK    7  A    between atoms: _19  and  _21
REMARK    8  A    between atoms: _21  and  _22
REMARK    9  A    between atoms: _21  and  _24
REMARK   10  A    between atoms: _24  and  _25
REMARK   11  A    between atoms: _30  and  _31
REMARK   12  A    between atoms: _33  and  _35
REMARK   13  A    between atoms: _35  and  _36
REMARK   14  A    between atoms: _38  and  _40
REMARK   15  A    between atoms: _40  and  _41
REMARK   16  A    between atoms: _40  and  _43
REMARK   17  A    between atoms: _43  and  _44
REMARK   18  A    between atoms: _44  and  _45
REMARK   19  A    between atoms: _45  and  _46
REMARK   20  A    between atoms: _46  and  _47
REMARK   21  A    between atoms: _51  and  _53
REMARK   22  A    between atoms: _53  and  _54
REMARK   23  A    between atoms: _53  and  _56
REMARK   24  A    between atoms: _59  and  _61
REMARK   25  A    between atoms: _61  and  _62
REMARK   26  A    between atoms: _61  and  _64
REMARK   27  A    between atoms: _64  and  _65
REMARK   28  A    between atoms: _71  and  _73
REMARK   29  A    between atoms: _73  and  _74
REMARK   30  A    between atoms: _73  and  _76
REMARK   31  A    between atoms: _76  and  _77
REMARK   32  A    between atoms: _77  and  _78
REMARK   33  A    between atoms: _78  and  _79
REMARK   34  A    between atoms: _88  and  _90
REMARK   35  A    between atoms: _90  and  _91
REMARK   36  A    between atoms: _93  and  _95
REMARK   37  A    between atoms: _95  and  _96
REMARK   38  A    between atoms: _95  and  _98
REMARK   39  A    between atoms: _98  and  _99
REMARK   40  A    between atoms: _99  and  _100
REMARK   41  A    between atoms: _100  and  _101
REMARK   42  A    between atoms: _101  and  _102
REMARK   43  A    between atoms: _106  and  _108
REMARK   44  A    between atoms: _108  and  _109
REMARK   45  A    between atoms: _108  and  _111
REMARK   46  A    between atoms: _111  and  _112
REMARK   47  A    between atoms: _115  and  _117
REMARK   48  A    between atoms: _117  and  _118
REMARK   49  A    between atoms: _117  and  _120
REMARK   50  A    between atoms: _120  and  _121
REMARK   51  A    between atoms: _126  and  _127
REMARK   52  A    between atoms: _129  and  _131
REMARK   53  A    between atoms: _131  and  _132
REMARK   54  A    between atoms: _131  and  _134
REMARK   55  A    between atoms: _134  and  _135
REMARK   56  A    between atoms: _135  and  _136
REMARK   57  A    between atoms: _141  and  _143
REMARK   58  A    between atoms: _143  and  _144
REMARK   59  A    between atoms: _143  and  _146
REMARK   60  A    between atoms: _146  and  _147
REMARK   61  A    between atoms: _147  and  _148
REMARK   62  A    between atoms: _148  and  _149
REMARK   63  A    between atoms: _158  and  _160
REMARK   64  A    between atoms: _160  and  _161
REMARK   65  A    between atoms: _163  and  _165
REMARK   66  A    between atoms: _165  and  _166
REMARK   67  A    between atoms: _165  and  _168
REMARK   68  A    between atoms: _168  and  _169
REMARK   69  A    between atoms: _174  and  _176
REMARK   70  A    between atoms: _176  and  _177
REMARK   71  A    between atoms: _176  and  _179
REMARK   72  A    between atoms: _179  and  _180
REMARK   73  A    between atoms: _183  and  _185
REMARK   74  A    between atoms: _185  and  _186
REMARK   75  A    between atoms: _185  and  _188
REMARK   76  A    between atoms: _188  and  _189
REMARK   77  A    between atoms: _192  and  _194
REMARK   78  A    between atoms: _194  and  _195
REMARK   79  A    between atoms: _194  and  _197
REMARK   80  A    between atoms: _197  and  _198
REMARK   81  A    between atoms: _203  and  _205
REMARK   82  A    between atoms: _205  and  _206
REMARK   83  A    between atoms: _205  and  _208
REMARK   84  A    between atoms: _208  and  _209
REMARK   85  A    between atoms: _212  and  _214
REMARK   86  A    between atoms: _214  and  _215
REMARK   87  A    between atoms: _214  and  _217
REMARK   88  A    between atoms: _217  and  _218
REMARK   89  A    between atoms: _223  and  _225
REMARK   90  A    between atoms: _225  and  _226
REMARK   91  A    between atoms: _228  and  _230
REMARK   92  A    between atoms: _230  and  _231
REMARK   93  A    between atoms: _230  and  _233
REMARK   94  A    between atoms: _233  and  _234
REMARK   95  A    between atoms: _238  and  ZN_939
REMARK   96  A    between atoms: _239  and  _241
REMARK   97  A    between atoms: _241  and  _242
REMARK   98  A    between atoms: _241  and  _244
REMARK   99  A    between atoms: _244  and  _245
REMARK  100  A    between atoms: _248  and  _250
REMARK  101  A    between atoms: _250  and  _251
REMARK  102  A    between atoms: _250  and  _253
REMARK  103  A    between atoms: _253  and  _254
REMARK  104  A    between atoms: _264  and  _266
REMARK  105  A    between atoms: _266  and  _267
REMARK  106  A    between atoms: _266  and  _269
REMARK  107  A    between atoms: _269  and  _270
REMARK  108  A    between atoms: _273  and  _275
REMARK  109  A    between atoms: _275  and  _276
REMARK  110  A    between atoms: _275  and  _278
REMARK  111  A    between atoms: _278  and  _279
REMARK  112  A    between atoms: _279  and  _280
REMARK  113  A    between atoms: _279  and  _281
REMARK  114  A    between atoms: _280  and  ZN_939
REMARK  115  A    between atoms: _281  and  ZN_938
REMARK  116  A    between atoms: _283  and  _284
REMARK  117  A    between atoms: _289  and  _291
REMARK  118  A    between atoms: _291  and  _292
REMARK  119  A    between atoms: _295  and  _297
REMARK  120  A    between atoms: _297  and  _298
REMARK  121  A    between atoms: _297  and  _300
REMARK  122  A    between atoms: _300  and  _301
REMARK  123  A    between atoms: _301  and  _302
REMARK  124  A    between atoms: _305  and  _307
REMARK  125  A    between atoms: _307  and  _308
REMARK  126  A    between atoms: _307  and  _310
REMARK  127  A    between atoms: _310  and  _311
REMARK  128  A    between atoms: _311  and  _312
REMARK  129  A    between atoms: _312  and  _314
REMARK  130  A    between atoms: _314  and  ZN_938
REMARK  131  A    between atoms: _315  and  _317
REMARK  132  A    between atoms: _317  and  _318
REMARK  133  A    between atoms: _317  and  _320
REMARK  134  A    between atoms: _320  and  _321
REMARK  135  A    between atoms: _327  and  _329
REMARK  136  A    between atoms: _329  and  _330
REMARK  137  A    between atoms: _332  and  _334
REMARK  138  A    between atoms: _334  and  _335
REMARK  139  A    between atoms: _334  and  _337
REMARK  140  A    between atoms: _337  and  _338
REMARK  141  A    between atoms: _341  and  _343
REMARK  142  A    between atoms: _343  and  _344
REMARK  143  A    between atoms: _343  and  _346
REMARK  144  A    between atoms: _346  and  _347
REMARK  145  A    between atoms: _350  and  _352
REMARK  146  A    between atoms: _352  and  _353
REMARK  147  A    between atoms: _352  and  _355
REMARK  148  A    between atoms: _355  and  _356
REMARK  149  A    between atoms: _361  and  _363
REMARK  150  A    between atoms: _363  and  _364
REMARK  151  A    between atoms: _363  and  _366
REMARK  152  A    between atoms: _366  and  _367
REMARK  153  A    between atoms: _367  and  _369
REMARK  154  A    between atoms: _369  and  ZN_939
REMARK  155  A    between atoms: _370  and  _372
REMARK  156  A    between atoms: _372  and  _373
REMARK  157  A    between atoms: _372  and  _375
REMARK  158  A    between atoms: _375  and  _376
REMARK  159  A    between atoms: _378  and  _380
REMARK  160  A    between atoms: _380  and  _381
REMARK  161  A    between atoms: _380  and  _383
REMARK  162  A    between atoms: _383  and  _384
REMARK  163  A    between atoms: _386  and  _388
REMARK  164  A    between atoms: _388  and  _389
REMARK  165  A    between atoms: _388  and  _391
REMARK  166  A    between atoms: _391  and  _392
REMARK  167  A    between atoms: _395  and  _397
REMARK  168  A    between atoms: _397  and  _398
REMARK  169  A    between atoms: _397  and  _400
REMARK  170  A    between atoms: _400  and  _401
REMARK  171  A    between atoms: _401  and  _402
REMARK  172  A    between atoms: _405  and  _407
REMARK  173  A    between atoms: _407  and  _408
REMARK  174  A    between atoms: _407  and  _410
REMARK  175  A    between atoms: _410  and  _411
REMARK  176  A    between atoms: _416  and  _417
REMARK  177  A    between atoms: _419  and  _421
REMARK  178  A    between atoms: _421  and  _422
REMARK  179  A    between atoms: _421  and  _424
REMARK  180  A    between atoms: _424  and  _425
REMARK  181  A    between atoms: _428  and  _430
REMARK  182  A    between atoms: _430  and  _431
REMARK  183  A    between atoms: _430  and  _433
REMARK  184  A    between atoms: _433  and  _434
REMARK  185  A    between atoms: _437  and  _439
REMARK  186  A    between atoms: _439  and  _440
REMARK  187  A    between atoms: _439  and  _442
REMARK  188  A    between atoms: _442  and  _443
REMARK  189  A    between atoms: _443  and  _444
REMARK  190  A    between atoms: _444  and  _445
REMARK  191  A    between atoms: _454  and  _456
REMARK  192  A    between atoms: _456  and  _457
REMARK  193  A    between atoms: _456  and  _459
REMARK  194  A    between atoms: _462  and  _464
REMARK  195  A    between atoms: _464  and  _465
REMARK  196  A    between atoms: _464  and  _467
REMARK  197  A    between atoms: _467  and  _468
REMARK  198  A    between atoms: _471  and  _473
REMARK  199  A    between atoms: _473  and  _474
REMARK  200  A    between atoms: _473  and  _476
REMARK  201  A    between atoms: _476  and  _477
REMARK  202  A    between atoms: _487  and  _489
REMARK  203  A    between atoms: _489  and  _490
REMARK  204  A    between atoms: _489  and  _492
REMARK  205  A    between atoms: _492  and  _493
REMARK  206  A    between atoms: _493  and  _494
REMARK  207  A    between atoms: _494  and  _495
REMARK  208  A    between atoms: _495  and  _496
REMARK  209  A    between atoms: _500  and  _502
REMARK  210  A    between atoms: _502  and  _503
REMARK  211  A    between atoms: _502  and  _505
REMARK  212  A    between atoms: _505  and  _506
REMARK  213  A    between atoms: _509  and  _510
REMARK  214  A    between atoms: _516  and  _517
REMARK  215  A    between atoms: _522  and  _524
REMARK  216  A    between atoms: _524  and  _525
REMARK  217  A    between atoms: _524  and  _527
REMARK  218  A    between atoms: _527  and  _528
REMARK  219  A    between atoms: _528  and  _529
REMARK  220  A    between atoms: _529  and  _530
REMARK  221  A    between atoms: _539  and  _541
REMARK  222  A    between atoms: _541  and  _542
REMARK  223  A    between atoms: _541  and  _544
REMARK  224  A    between atoms: _544  and  _545
REMARK  225  A    between atoms: _548  and  _550
REMARK  226  A    between atoms: _550  and  _551
REMARK  227  A    between atoms: _550  and  _553
REMARK  228  A    between atoms: _553  and  _554
REMARK  229  A    between atoms: _556  and  _558
REMARK  230  A    between atoms: _558  and  _559
REMARK  231  A    between atoms: _558  and  _561
REMARK  232  A    between atoms: _561  and  _562
REMARK  233  A    between atoms: _562  and  _563
REMARK  234  A    between atoms: _563  and  _564
REMARK  235  A    between atoms: _564  and  _565
REMARK  236  A    between atoms: _569  and  _571
REMARK  237  A    between atoms: _571  and  _572
REMARK  238  A    between atoms: _571  and  _574
REMARK  239  A    between atoms: _574  and  _575
REMARK  240  A    between atoms: _578  and  _580
REMARK  241  A    between atoms: _580  and  _581
REMARK  242  A    between atoms: _583  and  _585
REMARK  243  A    between atoms: _585  and  _586
REMARK  244  A    between atoms: _585  and  _588
REMARK  245  A    between atoms: _588  and  _589
REMARK  246  A    between atoms: _591  and  _593
REMARK  247  A    between atoms: _593  and  _594
REMARK  248  A    between atoms: _596  and  _598
REMARK  249  A    between atoms: _598  and  _599
REMARK  250  A    between atoms: _598  and  _601
REMARK  251  A    between atoms: _601  and  _602
REMARK  252  A    between atoms: _607  and  _609
REMARK  253  A    between atoms: _609  and  _610
REMARK  254  A    between atoms: _609  and  _612
REMARK  255  A    between atoms: _612  and  _613
REMARK  256  A    between atoms: _616  and  _618
REMARK  257  A    between atoms: _618  and  _619
REMARK  258  A    between atoms: _618  and  _621
REMARK  259  A    between atoms: _621  and  _622
REMARK  260  A    between atoms: _628  and  _630
REMARK  261  A    between atoms: _630  and  _631
REMARK  262  A    between atoms: _630  and  _633
REMARK  263  A    between atoms: _633  and  _634
REMARK  264  A    between atoms: _634  and  _635
REMARK  265  A    between atoms: _638  and  _640
REMARK  266  A    between atoms: _640  and  _641
REMARK  267  A    between atoms: _640  and  _643
REMARK  268  A    between atoms: _643  and  _644
REMARK  269  A    between atoms: _644  and  _645
REMARK  270  A    between atoms: _645  and  _646
REMARK  271  A    between atoms: _655  and  _657
REMARK  272  A    between atoms: _657  and  _658
REMARK  273  A    between atoms: _657  and  _660
REMARK  274  A    between atoms: _660  and  _661
REMARK  275  A    between atoms: _661  and  _662
REMARK  276  A    between atoms: _662  and  _663
REMARK  277  A    between atoms: _672  and  _674
REMARK  278  A    between atoms: _674  and  _675
REMARK  279  A    between atoms: _674  and  _677
REMARK  280  A    between atoms: _677  and  _678
REMARK  281  A    between atoms: _683  and  _684
REMARK  282  A    between atoms: _686  and  _688
REMARK  283  A    between atoms: _688  and  _689
REMARK  284  A    between atoms: _688  and  _691
REMARK  285  A    between atoms: _691  and  _692
REMARK  286  A    between atoms: _695  and  _697
REMARK  287  A    between atoms: _697  and  _698
REMARK  288  A    between atoms: _697  and  _700
REMARK  289  A    between atoms: _700  and  _701
REMARK  290  A    between atoms: _701  and  _702
REMARK  291  A    between atoms: _702  and  _703
REMARK  292  A    between atoms: _703  and  _704
REMARK  293  A    between atoms: _708  and  _710
REMARK  294  A    between atoms: _710  and  _711
REMARK  295  A    between atoms: _710  and  _713
REMARK  296  A    between atoms: _713  and  _714
REMARK  297  A    between atoms: _719  and  _721
REMARK  298  A    between atoms: _721  and  _722
REMARK  299  A    between atoms: _721  and  _724
REMARK  300  A    between atoms: _724  and  _725
REMARK  301  A    between atoms: _735  and  _737
REMARK  302  A    between atoms: _737  and  _738
REMARK  303  A    between atoms: _737  and  _740
REMARK  304  A    between atoms: _740  and  _741
REMARK  305  A    between atoms: _741  and  _742
REMARK  306  A    between atoms: _745  and  _747
REMARK  307  A    between atoms: _747  and  _748
REMARK  308  A    between atoms: _747  and  _750
REMARK  309  A    between atoms: _750  and  _751
REMARK  310  A    between atoms: _754  and  _756
REMARK  311  A    between atoms: _756  and  _757
REMARK  312  A    between atoms: _756  and  _759
REMARK  313  A    between atoms: _759  and  _760
REMARK  314  A    between atoms: _765  and  _767
REMARK  315  A    between atoms: _767  and  _768
REMARK  316  A    between atoms: _767  and  _770
REMARK  317  A    between atoms: _770  and  _771
REMARK  318  A    between atoms: _777  and  _779
REMARK  319  A    between atoms: _779  and  _780
REMARK  320  A    between atoms: _779  and  _782
REMARK  321  A    between atoms: _782  and  _783
REMARK  322  A    between atoms: _785  and  _787
REMARK  323  A    between atoms: _787  and  _788
REMARK  324  A    between atoms: _790  and  _792
REMARK  325  A    between atoms: _792  and  _793
REMARK  326  A    between atoms: _792  and  _795
REMARK  327  A    between atoms: _795  and  _796
REMARK  328  A    between atoms: _801  and  _802
REMARK  329  A    between atoms: _804  and  _806
REMARK  330  A    between atoms: _806  and  _807
REMARK  331  A    between atoms: _806  and  _809
REMARK  332  A    between atoms: _809  and  _810
REMARK  333  A    between atoms: _815  and  _816
REMARK  334  A    between atoms: _818  and  _820
REMARK  335  A    between atoms: _820  and  _821
REMARK  336  A    between atoms: _820  and  _823
REMARK  337  A    between atoms: _823  and  _824
REMARK  338  A    between atoms: _828  and  ZN_938
REMARK  339  A    between atoms: _829  and  _831
REMARK  340  A    between atoms: _831  and  _832
REMARK  341  A    between atoms: _831  and  _834
REMARK  342  A    between atoms: _834  and  _835
REMARK  343  A    between atoms: _835  and  _836
REMARK  344  A    between atoms: _839  and  _841
REMARK  345  A    between atoms: _841  and  _842
REMARK  346  A    between atoms: _841  and  _844
REMARK  347  A    between atoms: _844  and  _845
REMARK  348  A    between atoms: _845  and  _846
REMARK  349  A    between atoms: _846  and  _847
REMARK  350  A    between atoms: _856  and  _858
REMARK  351  A    between atoms: _858  and  _859
REMARK  352  A    between atoms: _858  and  _861
REMARK  353  A    between atoms: _861  and  _862
REMARK  354  A    between atoms: _867  and  _868
REMARK  355  A    between atoms: _870  and  _872
REMARK  356  A    between atoms: _872  and  _873
REMARK  357  A    between atoms: _872  and  _875
REMARK  358  A    between atoms: _875  and  _876
REMARK  359  A    between atoms: _878  and  _880
REMARK  360  A    between atoms: _880  and  _881
REMARK  361  A    between atoms: _880  and  _883
REMARK  362  A    between atoms: _883  and  _884
REMARK  363  A    between atoms: _889  and  _891
REMARK  364  A    between atoms: _891  and  _892
REMARK  365  A    between atoms: _891  and  _894
REMARK  366  A    between atoms: _894  and  _895
REMARK  367  A    between atoms: _900  and  _902
REMARK  368  A    between atoms: _902  and  _903
REMARK  369  A    between atoms: _902  and  _905
REMARK  370  A    between atoms: _905  and  _906
REMARK  371  A    between atoms: _906  and  _907
REMARK  372  A    between atoms: _907  and  _908
REMARK  373  A    between atoms: _908  and  _909
REMARK  374  A    between atoms: _913  and  _915
REMARK  375  A    between atoms: _915  and  _916
REMARK  376  A    between atoms: _915  and  _918
REMARK  377  A    between atoms: _918  and  _919
REMARK  378  A    between atoms: _924  and  _925
REMARK  379  A    between atoms: _927  and  _929
REMARK  380  A    between atoms: _929  and  _930
REMARK  381  A    between atoms: _933  and  _935
REMARK  382  A    between atoms: _935  and  _936
REMARK                            x       y       z     vdW  Elec       q    Type
REMARK                         _______ _______ _______ _____ _____    ______ ____
ROOT
ATOM      1  O   HOH     1      29.349  54.349  34.576  0.00  0.00    +0.000 OA
ENDROOT
TORSDOF 0
REMARK  Name = ../refined-set-2016/2xeg/2xeg_pocket.pdb
REMARK  382 active torsions:
REMARK  status: ('A' for Active; 'I' for Inactive)
REMARK    1  A    between atoms: _1  and  _3
REMARK    2  A    between atoms: _3  and  _4
REMARK    3  A    between atoms: _7  and  _9
REMARK    4  A    between atoms: _9  and  _10
REMARK    5  A    between atoms: _9  and  _12
REMARK    6  A    between atoms: _12  and  _13
REMARK    7  A    between atoms: _19  and  _21
REMARK    8  A    between atoms: _21  and  _22
REMARK    9  A    between atoms: _21  and  _24
REMARK   10  A    between atoms: _24  and  _25
REMARK   11  A    between atoms: _30  and  _31
REMARK   12  A    between atoms: _33  and  _35
REMARK   13  A    between atoms: _35  and  _36
REMARK   14  A    between atoms: _38  and  _40
REMARK   15  A    between atoms: _40  and  _41
REMARK   16  A    between atoms: _40  and  _43
REMARK   17  A    between atoms: _43  and  _44
REMARK   18  A    between atoms: _44  and  _45
REMARK   19  A    between atoms: _45  and  _46
REMARK   20  A    between atoms: _46  and  _47
REMARK   21  A    between atoms: _51  and  _53
REMARK   22  A    between atoms: _53  and  _54
REMARK   23  A    between atoms: _53  and  _56
REMARK   24  A    between atoms: _59  and  _61
REMARK   25  A    between atoms: _61  and  _62
REMARK   26  A    between atoms: _61  and  _64
REMARK   27  A    between atoms: _64  and  _65
REMARK   28  A    between atoms: _71  and  _73
REMARK   29  A    between atoms: _73  and  _74
REMARK   30  A    between atoms: _73  and  _76
REMARK   31  A    between atoms: _76  and  _77
REMARK   32  A    between atoms: _77  and  _78
REMARK   33  A    between atoms: _78  and  _79
REMARK   34  A    between atoms: _88  and  _90
REMARK   35  A    between atoms: _90  and  _91
REMARK   36  A    between atoms: _93  and  _95
REMARK   37  A    between atoms: _95  and  _96
REMARK   38  A    between atoms: _95  and  _98
REMARK   39  A    between atoms: _98  and  _99
REMARK   40  A    between atoms: _99  and  _100
REMARK   41  A    between atoms: _100  and  _101
REMARK   42  A    between atoms: _101  and  _102
REMARK   43  A    between atoms: _106  and  _108
REMARK   44  A    between atoms: _108  and  _109
REMARK   45  A    between atoms: _108  and  _111
REMARK   46  A    between atoms: _111  and  _112
REMARK   47  A    between atoms: _115  and  _117
REMARK   48  A    between atoms: _117  and  _118
REMARK   49  A    between atoms: _117  and  _120
REMARK   50  A    between atoms: _120  and  _121
REMARK   51  A    between atoms: _126  and  _127
REMARK   52  A    between atoms: _129  and  _131
REMARK   53  A    between atoms: _131  and  _132
REMARK   54  A    between atoms: _131  and  _134
REMARK   55  A    between atoms: _134  and  _135
REMARK   56  A    between atoms: _135  and  _136
REMARK   57  A    between atoms: _141  and  _143
REMARK   58  A    between atoms: _143  and  _144
REMARK   59  A    between atoms: _143  and  _146
REMARK   60  A    between atoms: _146  and  _147
REMARK   61  A    between atoms: _147  and  _148
REMARK   62  A    between atoms: _148  and  _149
REMARK   63  A    between atoms: _158  and  _160
REMARK   64  A    between atoms: _160  and  _161
REMARK   65  A    between atoms: _163  and  _165
REMARK   66  A    between atoms: _165  and  _166
REMARK   67  A    between atoms: _165  and  _168
REMARK   68  A    between atoms: _168  and  _169
REMARK   69  A    between atoms: _174  and  _176
REMARK   70  A    between atoms: _176  and  _177
REMARK   71  A    between atoms: _176  and  _179
REMARK   72  A    between atoms: _179  and  _180
REMARK   73  A    between atoms: _183  and  _185
REMARK   74  A    between atoms: _185  and  _186
REMARK   75  A    between atoms: _185  and  _188
REMARK   76  A    between atoms: _188  and  _189
REMARK   77  A    between atoms: _192  and  _194
REMARK   78  A    between atoms: _194  and  _195
REMARK   79  A    between atoms: _194  and  _197
REMARK   80  A    between atoms: _197  and  _198
REMARK   81  A    between atoms: _203  and  _205
REMARK   82  A    between atoms: _205  and  _206
REMARK   83  A    between atoms: _205  and  _208
REMARK   84  A    between atoms: _208  and  _209
REMARK   85  A    between atoms: _212  and  _214
REMARK   86  A    between atoms: _214  and  _215
REMARK   87  A    between atoms: _214  and  _217
REMARK   88  A    between atoms: _217  and  _218
REMARK   89  A    between atoms: _223  and  _225
REMARK   90  A    between atoms: _225  and  _226
REMARK   91  A    between atoms: _228  and  _230
REMARK   92  A    between atoms: _230  and  _231
REMARK   93  A    between atoms: _230  and  _233
REMARK   94  A    between atoms: _233  and  _234
REMARK   95  A    between atoms: _238  and  ZN_939
REMARK   96  A    between atoms: _239  and  _241
REMARK   97  A    between atoms: _241  and  _242
REMARK   98  A    between atoms: _241  and  _244
REMARK   99  A    between atoms: _244  and  _245
REMARK  100  A    between atoms: _248  and  _250
REMARK  101  A    between atoms: _250  and  _251
REMARK  102  A    between atoms: _250  and  _253
REMARK  103  A    between atoms: _253  and  _254
REMARK  104  A    between atoms: _264  and  _266
REMARK  105  A    between atoms: _266  and  _267
REMARK  106  A    between atoms: _266  and  _269
REMARK  107  A    between atoms: _269  and  _270
REMARK  108  A    between atoms: _273  and  _275
REMARK  109  A    between atoms: _275  and  _276
REMARK  110  A    between atoms: _275  and  _278
REMARK  111  A    between atoms: _278  and  _279
REMARK  112  A    between atoms: _279  and  _280
REMARK  113  A    between atoms: _279  and  _281
REMARK  114  A    between atoms: _280  and  ZN_939
REMARK  115  A    between atoms: _281  and  ZN_938
REMARK  116  A    between atoms: _283  and  _284
REMARK  117  A    between atoms: _289  and  _291
REMARK  118  A    between atoms: _291  and  _292
REMARK  119  A    between atoms: _295  and  _297
REMARK  120  A    between atoms: _297  and  _298
REMARK  121  A    between atoms: _297  and  _300
REMARK  122  A    between atoms: _300  and  _301
REMARK  123  A    between atoms: _301  and  _302
REMARK  124  A    between atoms: _305  and  _307
REMARK  125  A    between atoms: _307  and  _308
REMARK  126  A    between atoms: _307  and  _310
REMARK  127  A    between atoms: _310  and  _311
REMARK  128  A    between atoms: _311  and  _312
REMARK  129  A    between atoms: _312  and  _314
REMARK  130  A    between atoms: _314  and  ZN_938
REMARK  131  A    between atoms: _315  and  _317
REMARK  132  A    between atoms: _317  and  _318
REMARK  133  A    between atoms: _317  and  _320
REMARK  134  A    between atoms: _320  and  _321
REMARK  135  A    between atoms: _327  and  _329
REMARK  136  A    between atoms: _329  and  _330
REMARK  137  A    between atoms: _332  and  _334
REMARK  138  A    between atoms: _334  and  _335
REMARK  139  A    between atoms: _334  and  _337
REMARK  140  A    between atoms: _337  and  _338
REMARK  141  A    between atoms: _341  and  _343
REMARK  142  A    between atoms: _343  and  _344
REMARK  143  A    between atoms: _343  and  _346
REMARK  144  A    between atoms: _346  and  _347
REMARK  145  A    between atoms: _350  and  _352
REMARK  146  A    between atoms: _352  and  _353
REMARK  147  A    between atoms: _352  and  _355
REMARK  148  A    between atoms: _355  and  _356
REMARK  149  A    between atoms: _361  and  _363
REMARK  150  A    between atoms: _363  and  _364
REMARK  151  A    between atoms: _363  and  _366
REMARK  152  A    between atoms: _366  and  _367
REMARK  153  A    between atoms: _367  and  _369
REMARK  154  A    between atoms: _369  and  ZN_939
REMARK  155  A    between atoms: _370  and  _372
REMARK  156  A    between atoms: _372  and  _373
REMARK  157  A    between atoms: _372  and  _375
REMARK  158  A    between atoms: _375  and  _376
REMARK  159  A    between atoms: _378  and  _380
REMARK  160  A    between atoms: _380  and  _381
REMARK  161  A    between atoms: _380  and  _383
REMARK  162  A    between atoms: _383  and  _384
REMARK  163  A    between atoms: _386  and  _388
REMARK  164  A    between atoms: _388  and  _389
REMARK  165  A    between atoms: _388  and  _391
REMARK  166  A    between atoms: _391  and  _392
REMARK  167  A    between atoms: _395  and  _397
REMARK  168  A    between atoms: _397  and  _398
REMARK  169  A    between atoms: _397  and  _400
REMARK  170  A    between atoms: _400  and  _401
REMARK  171  A    between atoms: _401  and  _402
REMARK  172  A    between atoms: _405  and  _407
REMARK  173  A    between atoms: _407  and  _408
REMARK  174  A    between atoms: _407  and  _410
REMARK  175  A    between atoms: _410  and  _411
REMARK  176  A    between atoms: _416  and  _417
REMARK  177  A    between atoms: _419  and  _421
REMARK  178  A    between atoms: _421  and  _422
REMARK  179  A    between atoms: _421  and  _424
REMARK  180  A    between atoms: _424  and  _425
REMARK  181  A    between atoms: _428  and  _430
REMARK  182  A    between atoms: _430  and  _431
REMARK  183  A    between atoms: _430  and  _433
REMARK  184  A    between atoms: _433  and  _434
REMARK  185  A    between atoms: _437  and  _439
REMARK  186  A    between atoms: _439  and  _440
REMARK  187  A    between atoms: _439  and  _442
REMARK  188  A    between atoms: _442  and  _443
REMARK  189  A    between atoms: _443  and  _444
REMARK  190  A    between atoms: _444  and  _445
REMARK  191  A    between atoms: _454  and  _456
REMARK  192  A    between atoms: _456  and  _457
REMARK  193  A    between atoms: _456  and  _459
REMARK  194  A    between atoms: _462  and  _464
REMARK  195  A    between atoms: _464  and  _465
REMARK  196  A    between atoms: _464  and  _467
REMARK  197  A    between atoms: _467  and  _468
REMARK  198  A    between atoms: _471  and  _473
REMARK  199  A    between atoms: _473  and  _474
REMARK  200  A    between atoms: _473  and  _476
REMARK  201  A    between atoms: _476  and  _477
REMARK  202  A    between atoms: _487  and  _489
REMARK  203  A    between atoms: _489  and  _490
REMARK  204  A    between atoms: _489  and  _492
REMARK  205  A    between atoms: _492  and  _493
REMARK  206  A    between atoms: _493  and  _494
REMARK  207  A    between atoms: _494  and  _495
REMARK  208  A    between atoms: _495  and  _496
REMARK  209  A    between atoms: _500  and  _502
REMARK  210  A    between atoms: _502  and  _503
REMARK  211  A    between atoms: _502  and  _505
REMARK  212  A    between atoms: _505  and  _506
REMARK  213  A    between atoms: _509  and  _510
REMARK  214  A    between atoms: _516  and  _517
REMARK  215  A    between atoms: _522  and  _524
REMARK  216  A    between atoms: _524  and  _525
REMARK  217  A    between atoms: _524  and  _527
REMARK  218  A    between atoms: _527  and  _528
REMARK  219  A    between atoms: _528  and  _529
REMARK  220  A    between atoms: _529  and  _530
REMARK  221  A    between atoms: _539  and  _541
REMARK  222  A    between atoms: _541  and  _542
REMARK  223  A    between atoms: _541  and  _544
REMARK  224  A    between atoms: _544  and  _545
REMARK  225  A    between atoms: _548  and  _550
REMARK  226  A    between atoms: _550  and  _551
REMARK  227  A    between atoms: _550  and  _553
REMARK  228  A    between atoms: _553  and  _554
REMARK  229  A    between atoms: _556  and  _558
REMARK  230  A    between atoms: _558  and  _559
REMARK  231  A    between atoms: _558  and  _561
REMARK  232  A    between atoms: _561  and  _562
REMARK  233  A    between atoms: _562  and  _563
REMARK  234  A    between atoms: _563  and  _564
REMARK  235  A    between atoms: _564  and  _565
REMARK  236  A    between atoms: _569  and  _571
REMARK  237  A    between atoms: _571  and  _572
REMARK  238  A    between atoms: _571  and  _574
REMARK  239  A    between atoms: _574  and  _575
REMARK  240  A    between atoms: _578  and  _580
REMARK  241  A    between atoms: _580  and  _581
REMARK  242  A    between atoms: _583  and  _585
REMARK  243  A    between atoms: _585  and  _586
REMARK  244  A    between atoms: _585  and  _588
REMARK  245  A    between atoms: _588  and  _589
REMARK  246  A    between atoms: _591  and  _593
REMARK  247  A    between atoms: _593  and  _594
REMARK  248  A    between atoms: _596  and  _598
REMARK  249  A    between atoms: _598  and  _599
REMARK  250  A    between atoms: _598  and  _601
REMARK  251  A    between atoms: _601  and  _602
REMARK  252  A    between atoms: _607  and  _609
REMARK  253  A    between atoms: _609  and  _610
REMARK  254  A    between atoms: _609  and  _612
REMARK  255  A    between atoms: _612  and  _613
REMARK  256  A    between atoms: _616  and  _618
REMARK  257  A    between atoms: _618  and  _619
REMARK  258  A    between atoms: _618  and  _621
REMARK  259  A    between atoms: _621  and  _622
REMARK  260  A    between atoms: _628  and  _630
REMARK  261  A    between atoms: _630  and  _631
REMARK  262  A    between atoms: _630  and  _633
REMARK  263  A    between atoms: _633  and  _634
REMARK  264  A    between atoms: _634  and  _635
REMARK  265  A    between atoms: _638  and  _640
REMARK  266  A    between atoms: _640  and  _641
REMARK  267  A    between atoms: _640  and  _643
REMARK  268  A    between atoms: _643  and  _644
REMARK  269  A    between atoms: _644  and  _645
REMARK  270  A    between atoms: _645  and  _646
REMARK  271  A    between atoms: _655  and  _657
REMARK  272  A    between atoms: _657  and  _658
REMARK  273  A    between atoms: _657  and  _660
REMARK  274  A    between atoms: _660  and  _661
REMARK  275  A    between atoms: _661  and  _662
REMARK  276  A    between atoms: _662  and  _663
REMARK  277  A    between atoms: _672  and  _674
REMARK  278  A    between atoms: _674  and  _675
REMARK  279  A    between atoms: _674  and  _677
REMARK  280  A    between atoms: _677  and  _678
REMARK  281  A    between atoms: _683  and  _684
REMARK  282  A    between atoms: _686  and  _688
REMARK  283  A    between atoms: _688  and  _689
REMARK  284  A    between atoms: _688  and  _691
REMARK  285  A    between atoms: _691  and  _692
REMARK  286  A    between atoms: _695  and  _697
REMARK  287  A    between atoms: _697  and  _698
REMARK  288  A    between atoms: _697  and  _700
REMARK  289  A    between atoms: _700  and  _701
REMARK  290  A    between atoms: _701  and  _702
REMARK  291  A    between atoms: _702  and  _703
REMARK  292  A    between atoms: _703  and  _704
REMARK  293  A    between atoms: _708  and  _710
REMARK  294  A    between atoms: _710  and  _711
REMARK  295  A    between atoms: _710  and  _713
REMARK  296  A    between atoms: _713  and  _714
REMARK  297  A    between atoms: _719  and  _721
REMARK  298  A    between atoms: _721  and  _722
REMARK  299  A    between atoms: _721  and  _724
REMARK  300  A    between atoms: _724  and  _725
REMARK  301  A    between atoms: _735  and  _737
REMARK  302  A    between atoms: _737  and  _738
REMARK  303  A    between atoms: _737  and  _740
REMARK  304  A    between atoms: _740  and  _741
REMARK  305  A    between atoms: _741  and  _742
REMARK  306  A    between atoms: _745  and  _747
REMARK  307  A    between atoms: _747  and  _748
REMARK  308  A    between atoms: _747  and  _750
REMARK  309  A    between atoms: _750  and  _751
REMARK  310  A    between atoms: _754  and  _756
REMARK  311  A    between atoms: _756  and  _757
REMARK  312  A    between atoms: _756  and  _759
REMARK  313  A    between atoms: _759  and  _760
REMARK  314  A    between atoms: _765  and  _767
REMARK  315  A    between atoms: _767  and  _768
REMARK  316  A    between atoms: _767  and  _770
REMARK  317  A    between atoms: _770  and  _771
REMARK  318  A    between atoms: _777  and  _779
REMARK  319  A    between atoms: _779  and  _780
REMARK  320  A    between atoms: _779  and  _782
REMARK  321  A    between atoms: _782  and  _783
REMARK  322  A    between atoms: _785  and  _787
REMARK  323  A    between atoms: _787  and  _788
REMARK  324  A    between atoms: _790  and  _792
REMARK  325  A    between atoms: _792  and  _793
REMARK  326  A    between atoms: _792  and  _795
REMARK  327  A    between atoms: _795  and  _796
REMARK  328  A    between atoms: _801  and  _802
REMARK  329  A    between atoms: _804  and  _806
REMARK  330  A    between atoms: _806  and  _807
REMARK  331  A    between atoms: _806  and  _809
REMARK  332  A    between atoms: _809  and  _810
REMARK  333  A    between atoms: _815  and  _816
REMARK  334  A    between atoms: _818  and  _820
REMARK  335  A    between atoms: _820  and  _821
REMARK  336  A    between atoms: _820  and  _823
REMARK  337  A    between atoms: _823  and  _824
REMARK  338  A    between atoms: _828  and  ZN_938
REMARK  339  A    between atoms: _829  and  _831
REMARK  340  A    between atoms: _831  and  _832
REMARK  341  A    between atoms: _831  and  _834
REMARK  342  A    between atoms: _834  and  _835
REMARK  343  A    between atoms: _835  and  _836
REMARK  344  A    between atoms: _839  and  _841
REMARK  345  A    between atoms: _841  and  _842
REMARK  346  A    between atoms: _841  and  _844
REMARK  347  A    between atoms: _844  and  _845
REMARK  348  A    between atoms: _845  and  _846
REMARK  349  A    between atoms: _846  and  _847
REMARK  350  A    between atoms: _856  and  _858
REMARK  351  A    between atoms: _858  and  _859
REMARK  352  A    between atoms: _858  and  _861
REMARK  353  A    between atoms: _861  and  _862
REMARK  354  A    between atoms: _867  and  _868
REMARK  355  A    between atoms: _870  and  _872
REMARK  356  A    between atoms: _872  and  _873
REMARK  357  A    between atoms: _872  and  _875
REMARK  358  A    between atoms: _875  and  _876
REMARK  359  A    between atoms: _878  and  _880
REMARK  360  A    between atoms: _880  and  _881
REMARK  361  A    between atoms: _880  and  _883
REMARK  362  A    between atoms: _883  and  _884
REMARK  363  A    between atoms: _889  and  _891
REMARK  364  A    between atoms: _891  and  _892
REMARK  365  A    between atoms: _891  and  _894
REMARK  366  A    between atoms: _894  and  _895
REMARK  367  A    between atoms: _900  and  _902
REMARK  368  A    between atoms: _902  and  _903
REMARK  369  A    between atoms: _902  and  _905
REMARK  370  A    between atoms: _905  and  _906
REMARK  371  A    between atoms: _906  and  _907
REMARK  372  A    between atoms: _907  and  _908
REMARK  373  A    between atoms: _908  and  _909
REMARK  374  A    between atoms: _913  and  _915
REMARK  375  A    between atoms: _915  and  _916
REMARK  376  A    between atoms: _915  and  _918
REMARK  377  A    between atoms: _918  and  _919
REMARK  378  A    between atoms: _924  and  _925
REMARK  379  A    between atoms: _927  and  _929
REMARK  380  A    between atoms: _929  and  _930
REMARK  381  A    between atoms: _933  and  _935
REMARK  382  A    between atoms: _935  and  _936
REMARK                            x       y       z     vdW  Elec       q    Type
REMARK                         _______ _______ _______ _____ _____    ______ ____
ROOT
ATOM      1  O   HOH     1      23.864  46.019  34.720  0.00  0.00    +0.000 OA
ENDROOT
TORSDOF 0
REMARK  Name = ../refined-set-2016/2xeg/2xeg_pocket.pdb
REMARK  382 active torsions:
REMARK  status: ('A' for Active; 'I' for Inactive)
REMARK    1  A    between atoms: _1  and  _3
REMARK    2  A    between atoms: _3  and  _4
REMARK    3  A    between atoms: _7  and  _9
REMARK    4  A    between atoms: _9  and  _10
REMARK    5  A    between atoms: _9  and  _12
REMARK    6  A    between atoms: _12  and  _13
REMARK    7  A    between atoms: _19  and  _21
REMARK    8  A    between atoms: _21  and  _22
REMARK    9  A    between atoms: _21  and  _24
REMARK   10  A    between atoms: _24  and  _25
REMARK   11  A    between atoms: _30  and  _31
REMARK   12  A    between atoms: _33  and  _35
REMARK   13  A    between atoms: _35  and  _36
REMARK   14  A    between atoms: _38  and  _40
REMARK   15  A    between atoms: _40  and  _41
REMARK   16  A    between atoms: _40  and  _43
REMARK   17  A    between atoms: _43  and  _44
REMARK   18  A    between atoms: _44  and  _45
REMARK   19  A    between atoms: _45  and  _46
REMARK   20  A    between atoms: _46  and  _47
REMARK   21  A    between atoms: _51  and  _53
REMARK   22  A    between atoms: _53  and  _54
REMARK   23  A    between atoms: _53  and  _56
REMARK   24  A    between atoms: _59  and  _61
REMARK   25  A    between atoms: _61  and  _62
REMARK   26  A    between atoms: _61  and  _64
REMARK   27  A    between atoms: _64  and  _65
REMARK   28  A    between atoms: _71  and  _73
REMARK   29  A    between atoms: _73  and  _74
REMARK   30  A    between atoms: _73  and  _76
REMARK   31  A    between atoms: _76  and  _77
REMARK   32  A    between atoms: _77  and  _78
REMARK   33  A    between atoms: _78  and  _79
REMARK   34  A    between atoms: _88  and  _90
REMARK   35  A    between atoms: _90  and  _91
REMARK   36  A    between atoms: _93  and  _95
REMARK   37  A    between atoms: _95  and  _96
REMARK   38  A    between atoms: _95  and  _98
REMARK   39  A    between atoms: _98  and  _99
REMARK   40  A    between atoms: _99  and  _100
REMARK   41  A    between atoms: _100  and  _101
REMARK   42  A    between atoms: _101  and  _102
REMARK   43  A    between atoms: _106  and  _108
REMARK   44  A    between atoms: _108  and  _109
REMARK   45  A    between atoms: _108  and  _111
REMARK   46  A    between atoms: _111  and  _112
REMARK   47  A    between atoms: _115  and  _117
REMARK   48  A    between atoms: _117  and  _118
REMARK   49  A    between atoms: _117  and  _120
REMARK   50  A    between atoms: _120  and  _121
REMARK   51  A    between atoms: _126  and  _127
REMARK   52  A    between atoms: _129  and  _131
REMARK   53  A    between atoms: _131  and  _132
REMARK   54  A    between atoms: _131  and  _134
REMARK   55  A    between atoms: _134  and  _135
REMARK   56  A    between atoms: _135  and  _136
REMARK   57  A    between atoms: _141  and  _143
REMARK   58  A    between atoms: _143  and  _144
REMARK   59  A    between atoms: _143  and  _146
REMARK   60  A    between atoms: _146  and  _147
REMARK   61  A    between atoms: _147  and  _148
REMARK   62  A    between atoms: _148  and  _149
REMARK   63  A    between atoms: _158  and  _160
REMARK   64  A    between atoms: _160  and  _161
REMARK   65  A    between atoms: _163  and  _165
REMARK   66  A    between atoms: _165  and  _166
REMARK   67  A    between atoms: _165  and  _168
REMARK   68  A    between atoms: _168  and  _169
REMARK   69  A    between atoms: _174  and  _176
REMARK   70  A    between atoms: _176  and  _177
REMARK   71  A    between atoms: _176  and  _179
REMARK   72  A    between atoms: _179  and  _180
REMARK   73  A    between atoms: _183  and  _185
REMARK   74  A    between atoms: _185  and  _186
REMARK   75  A    between atoms: _185  and  _188
REMARK   76  A    between atoms: _188  and  _189
REMARK   77  A    between atoms: _192  and  _194
REMARK   78  A    between atoms: _194  and  _195
REMARK   79  A    between atoms: _194  and  _197
REMARK   80  A    between atoms: _197  and  _198
REMARK   81  A    between atoms: _203  and  _205
REMARK   82  A    between atoms: _205  and  _206
REMARK   83  A    between atoms: _205  and  _208
REMARK   84  A    between atoms: _208  and  _209
REMARK   85  A    between atoms: _212  and  _214
REMARK   86  A    between atoms: _214  and  _215
REMARK   87  A    between atoms: _214  and  _217
REMARK   88  A    between atoms: _217  and  _218
REMARK   89  A    between atoms: _223  and  _225
REMARK   90  A    between atoms: _225  and  _226
REMARK   91  A    between atoms: _228  and  _230
REMARK   92  A    between atoms: _230  and  _231
REMARK   93  A    between atoms: _230  and  _233
REMARK   94  A    between atoms: _233  and  _234
REMARK   95  A    between atoms: _238  and  ZN_939
REMARK   96  A    between atoms: _239  and  _241
REMARK   97  A    between atoms: _241  and  _242
REMARK   98  A    between atoms: _241  and  _244
REMARK   99  A    between atoms: _244  and  _245
REMARK  100  A    between atoms: _248  and  _250
REMARK  101  A    between atoms: _250  and  _251
REMARK  102  A    between atoms: _250  and  _253
REMARK  103  A    between atoms: _253  and  _254
REMARK  104  A    between atoms: _264  and  _266
REMARK  105  A    between atoms: _266  and  _267
REMARK  106  A    between atoms: _266  and  _269
REMARK  107  A    between atoms: _269  and  _270
REMARK  108  A    between atoms: _273  and  _275
REMARK  109  A    between atoms: _275  and  _276
REMARK  110  A    between atoms: _275  and  _278
REMARK  111  A    between atoms: _278  and  _279
REMARK  112  A    between atoms: _279  and  _280
REMARK  113  A    between atoms: _279  and  _281
REMARK  114  A    between atoms: _280  and  ZN_939
REMARK  115  A    between atoms: _281  and  ZN_938
REMARK  116  A    between atoms: _283  and  _284
REMARK  117  A    between atoms: _289  and  _291
REMARK  118  A    between atoms: _291  and  _292
REMARK  119  A    between atoms: _295  and  _297
REMARK  120  A    between atoms: _297  and  _298
REMARK  121  A    between atoms: _297  and  _300
REMARK  122  A    between atoms: _300  and  _301
REMARK  123  A    between atoms: _301  and  _302
REMARK  124  A    between atoms: _305  and  _307
REMARK  125  A    between atoms: _307  and  _308
REMARK  126  A    between atoms: _307  and  _310
REMARK  127  A    between atoms: _310  and  _311
REMARK  128  A    between atoms: _311  and  _312
REMARK  129  A    between atoms: _312  and  _314
REMARK  130  A    between atoms: _314  and  ZN_938
REMARK  131  A    between atoms: _315  and  _317
REMARK  132  A    between atoms: _317  and  _318
REMARK  133  A    between atoms: _317  and  _320
REMARK  134  A    between atoms: _320  and  _321
REMARK  135  A    between atoms: _327  and  _329
REMARK  136  A    between atoms: _329  and  _330
REMARK  137  A    between atoms: _332  and  _334
REMARK  138  A    between atoms: _334  and  _335
REMARK  139  A    between atoms: _334  and  _337
REMARK  140  A    between atoms: _337  and  _338
REMARK  141  A    between atoms: _341  and  _343
REMARK  142  A    between atoms: _343  and  _344
REMARK  143  A    between atoms: _343  and  _346
REMARK  144  A    between atoms: _346  and  _347
REMARK  145  A    between atoms: _350  and  _352
REMARK  146  A    between atoms: _352  and  _353
REMARK  147  A    between atoms: _352  and  _355
REMARK  148  A    between atoms: _355  and  _356
REMARK  149  A    between atoms: _361  and  _363
REMARK  150  A    between atoms: _363  and  _364
REMARK  151  A    between atoms: _363  and  _366
REMARK  152  A    between atoms: _366  and  _367
REMARK  153  A    between atoms: _367  and  _369
REMARK  154  A    between atoms: _369  and  ZN_939
REMARK  155  A    between atoms: _370  and  _372
REMARK  156  A    between atoms: _372  and  _373
REMARK  157  A    between atoms: _372  and  _375
REMARK  158  A    between atoms: _375  and  _376
REMARK  159  A    between atoms: _378  and  _380
REMARK  160  A    between atoms: _380  and  _381
REMARK  161  A    between atoms: _380  and  _383
REMARK  162  A    between atoms: _383  and  _384
REMARK  163  A    between atoms: _386  and  _388
REMARK  164  A    between atoms: _388  and  _389
REMARK  165  A    between atoms: _388  and  _391
REMARK  166  A    between atoms: _391  and  _392
REMARK  167  A    between atoms: _395  and  _397
REMARK  168  A    between atoms: _397  and  _398
REMARK  169  A    between atoms: _397  and  _400
REMARK  170  A    between atoms: _400  and  _401
REMARK  171  A    between atoms: _401  and  _402
REMARK  172  A    between atoms: _405  and  _407
REMARK  173  A    between atoms: _407  and  _408
REMARK  174  A    between atoms: _407  and  _410
REMARK  175  A    between atoms: _410  and  _411
REMARK  176  A    between atoms: _416  and  _417
REMARK  177  A    between atoms: _419  and  _421
REMARK  178  A    between atoms: _421  and  _422
REMARK  179  A    between atoms: _421  and  _424
REMARK  180  A    between atoms: _424  and  _425
REMARK  181  A    between atoms: _428  and  _430
REMARK  182  A    between atoms: _430  and  _431
REMARK  183  A    between atoms: _430  and  _433
REMARK  184  A    between atoms: _433  and  _434
REMARK  185  A    between atoms: _437  and  _439
REMARK  186  A    between atoms: _439  and  _440
REMARK  187  A    between atoms: _439  and  _442
REMARK  188  A    between atoms: _442  and  _443
REMARK  189  A    between atoms: _443  and  _444
REMARK  190  A    between atoms: _444  and  _445
REMARK  191  A    between atoms: _454  and  _456
REMARK  192  A    between atoms: _456  and  _457
REMARK  193  A    between atoms: _456  and  _459
REMARK  194  A    between atoms: _462  and  _464
REMARK  195  A    between atoms: _464  and  _465
REMARK  196  A    between atoms: _464  and  _467
REMARK  197  A    between atoms: _467  and  _468
REMARK  198  A    between atoms: _471  and  _473
REMARK  199  A    between atoms: _473  and  _474
REMARK  200  A    between atoms: _473  and  _476
REMARK  201  A    between atoms: _476  and  _477
REMARK  202  A    between atoms: _487  and  _489
REMARK  203  A    between atoms: _489  and  _490
REMARK  204  A    between atoms: _489  and  _492
REMARK  205  A    between atoms: _492  and  _493
REMARK  206  A    between atoms: _493  and  _494
REMARK  207  A    between atoms: _494  and  _495
REMARK  208  A    between atoms: _495  and  _496
REMARK  209  A    between atoms: _500  and  _502
REMARK  210  A    between atoms: _502  and  _503
REMARK  211  A    between atoms: _502  and  _505
REMARK  212  A    between atoms: _505  and  _506
REMARK  213  A    between atoms: _509  and  _510
REMARK  214  A    between atoms: _516  and  _517
REMARK  215  A    between atoms: _522  and  _524
REMARK  216  A    between atoms: _524  and  _525
REMARK  217  A    between atoms: _524  and  _527
REMARK  218  A    between atoms: _527  and  _528
REMARK  219  A    between atoms: _528  and  _529
REMARK  220  A    between atoms: _529  and  _530
REMARK  221  A    between atoms: _539  and  _541
REMARK  222  A    between atoms: _541  and  _542
REMARK  223  A    between atoms: _541  and  _544
REMARK  224  A    between atoms: _544  and  _545
REMARK  225  A    between atoms: _548  and  _550
REMARK  226  A    between atoms: _550  and  _551
REMARK  227  A    between atoms: _550  and  _553
REMARK  228  A    between atoms: _553  and  _554
REMARK  229  A    between atoms: _556  and  _558
REMARK  230  A    between atoms: _558  and  _559
REMARK  231  A    between atoms: _558  and  _561
REMARK  232  A    between atoms: _561  and  _562
REMARK  233  A    between atoms: _562  and  _563
REMARK  234  A    between atoms: _563  and  _564
REMARK  235  A    between atoms: _564  and  _565
REMARK  236  A    between atoms: _569  and  _571
REMARK  237  A    between atoms: _571  and  _572
REMARK  238  A    between atoms: _571  and  _574
REMARK  239  A    between atoms: _574  and  _575
REMARK  240  A    between atoms: _578  and  _580
REMARK  241  A    between atoms: _580  and  _581
REMARK  242  A    between atoms: _583  and  _585
REMARK  243  A    between atoms: _585  and  _586
REMARK  244  A    between atoms: _585  and  _588
REMARK  245  A    between atoms: _588  and  _589
REMARK  246  A    between atoms: _591  and  _593
REMARK  247  A    between atoms: _593  and  _594
REMARK  248  A    between atoms: _596  and  _598
REMARK  249  A    between atoms: _598  and  _599
REMARK  250  A    between atoms: _598  and  _601
REMARK  251  A    between atoms: _601  and  _602
REMARK  252  A    between atoms: _607  and  _609
REMARK  253  A    between atoms: _609  and  _610
REMARK  254  A    between atoms: _609  and  _612
REMARK  255  A    between atoms: _612  and  _613
REMARK  256  A    between atoms: _616  and  _618
REMARK  257  A    between atoms: _618  and  _619
REMARK  258  A    between atoms: _618  and  _621
REMARK  259  A    between atoms: _621  and  _622
REMARK  260  A    between atoms: _628  and  _630
REMARK  261  A    between atoms: _630  and  _631
REMARK  262  A    between atoms: _630  and  _633
REMARK  263  A    between atoms: _633  and  _634
REMARK  264  A    between atoms: _634  and  _635
REMARK  265  A    between atoms: _638  and  _640
REMARK  266  A    between atoms: _640  and  _641
REMARK  267  A    between atoms: _640  and  _643
REMARK  268  A    between atoms: _643  and  _644
REMARK  269  A    between atoms: _644  and  _645
REMARK  270  A    between atoms: _645  and  _646
REMARK  271  A    between atoms: _655  and  _657
REMARK  272  A    between atoms: _657  and  _658
REMARK  273  A    between atoms: _657  and  _660
REMARK  274  A    between atoms: _660  and  _661
REMARK  275  A    between atoms: _661  and  _662
REMARK  276  A    between atoms: _662  and  _663
REMARK  277  A    between atoms: _672  and  _674
REMARK  278  A    between atoms: _674  and  _675
REMARK  279  A    between atoms: _674  and  _677
REMARK  280  A    between atoms: _677  and  _678
REMARK  281  A    between atoms: _683  and  _684
REMARK  282  A    between atoms: _686  and  _688
REMARK  283  A    between atoms: _688  and  _689
REMARK  284  A    between atoms: _688  and  _691
REMARK  285  A    between atoms: _691  and  _692
REMARK  286  A    between atoms: _695  and  _697
REMARK  287  A    between atoms: _697  and  _698
REMARK  288  A    between atoms: _697  and  _700
REMARK  289  A    between atoms: _700  and  _701
REMARK  290  A    between atoms: _701  and  _702
REMARK  291  A    between atoms: _702  and  _703
REMARK  292  A    between atoms: _703  and  _704
REMARK  293  A    between atoms: _708  and  _710
REMARK  294  A    between atoms: _710  and  _711
REMARK  295  A    between atoms: _710  and  _713
REMARK  296  A    between atoms: _713  and  _714
REMARK  297  A    between atoms: _719  and  _721
REMARK  298  A    between atoms: _721  and  _722
REMARK  299  A    between atoms: _721  and  _724
REMARK  300  A    between atoms: _724  and  _725
REMARK  301  A    between atoms: _735  and  _737
REMARK  302  A    between atoms: _737  and  _738
REMARK  303  A    between atoms: _737  and  _740
REMARK  304  A    between atoms: _740  and  _741
REMARK  305  A    between atoms: _741  and  _742
REMARK  306  A    between atoms: _745  and  _747
REMARK  307  A    between atoms: _747  and  _748
REMARK  308  A    between atoms: _747  and  _750
REMARK  309  A    between atoms: _750  and  _751
REMARK  310  A    between atoms: _754  and  _756
REMARK  311  A    between atoms: _756  and  _757
REMARK  312  A    between atoms: _756  and  _759
REMARK  313  A    between atoms: _759  and  _760
REMARK  314  A    between atoms: _765  and  _767
REMARK  315  A    between atoms: _767  and  _768
REMARK  316  A    between atoms: _767  and  _770
REMARK  317  A    between atoms: _770  and  _771
REMARK  318  A    between atoms: _777  and  _779
REMARK  319  A    between atoms: _779  and  _780
REMARK  320  A    between atoms: _779  and  _782
REMARK  321  A    between atoms: _782  and  _783
REMARK  322  A    between atoms: _785  and  _787
REMARK  323  A    between atoms: _787  and  _788
REMARK  324  A    between atoms: _790  and  _792
REMARK  325  A    between atoms: _792  and  _793
REMARK  326  A    between atoms: _792  and  _795
REMARK  327  A    between atoms: _795  and  _796
REMARK  328  A    between atoms: _801  and  _802
REMARK  329  A    between atoms: _804  and  _806
REMARK  330  A    between atoms: _806  and  _807
REMARK  331  A    between atoms: _806  and  _809
REMARK  332  A    between atoms: _809  and  _810
REMARK  333  A    between atoms: _815  and  _816
REMARK  334  A    between atoms: _818  and  _820
REMARK  335  A    between atoms: _820  and  _821
REMARK  336  A    between atoms: _820  and  _823
REMARK  337  A    between atoms: _823  and  _824
REMARK  338  A    between atoms: _828  and  ZN_938
REMARK  339  A    between atoms: _829  and  _831
REMARK  340  A    between atoms: _831  and  _832
REMARK  341  A    between atoms: _831  and  _834
REMARK  342  A    between atoms: _834  and  _835
REMARK  343  A    between atoms: _835  and  _836
REMARK  344  A    between atoms: _839  and  _841
REMARK  345  A    between atoms: _841  and  _842
REMARK  346  A    between atoms: _841  and  _844
REMARK  347  A    between atoms: _844  and  _845
REMARK  348  A    between atoms: _845  and  _846
REMARK  349  A    between atoms: _846  and  _847
REMARK  350  A    between atoms: _856  and  _858
REMARK  351  A    between atoms: _858  and  _859
REMARK  352  A    between atoms: _858  and  _861
REMARK  353  A    between atoms: _861  and  _862
REMARK  354  A    between atoms: _867  and  _868
REMARK  355  A    between atoms: _870  and  _872
REMARK  356  A    between atoms: _872  and  _873
REMARK  357  A    between atoms: _872  and  _875
REMARK  358  A    between atoms: _875  and  _876
REMARK  359  A    between atoms: _878  and  _880
REMARK  360  A    between atoms: _880  and  _881
REMARK  361  A    between atoms: _880  and  _883
REMARK  362  A    between atoms: _883  and  _884
REMARK  363  A    between atoms: _889  and  _891
REMARK  364  A    between atoms: _891  and  _892
REMARK  365  A    between atoms: _891  and  _894
REMARK  366  A    between atoms: _894  and  _895
REMARK  367  A    between atoms: _900  and  _902
REMARK  368  A    between atoms: _902  and  _903
REMARK  369  A    between atoms: _902  and  _905
REMARK  370  A    between atoms: _905  and  _906
REMARK  371  A    between atoms: _906  and  _907
REMARK  372  A    between atoms: _907  and  _908
REMARK  373  A    between atoms: _908  and  _909
REMARK  374  A    between atoms: _913  and  _915
REMARK  375  A    between atoms: _915  and  _916
REMARK  376  A    between atoms: _915  and  _918
REMARK  377  A    between atoms: _918  and  _919
REMARK  378  A    between atoms: _924  and  _925
REMARK  379  A    between atoms: _927  and  _929
REMARK  380  A    between atoms: _929  and  _930
REMARK  381  A    between atoms: _933  and  _935
REMARK  382  A    between atoms: _935  and  _936
REMARK                            x       y       z     vdW  Elec       q    Type
REMARK                         _______ _______ _______ _____ _____    ______ ____
ROOT
ATOM      1  O   HOH     1      29.371  47.797  37.452  0.00  0.00    +0.000 OA
ENDROOT
TORSDOF 0
REMARK  Name = ../refined-set-2016/2xeg/2xeg_pocket.pdb
REMARK  382 active torsions:
REMARK  status: ('A' for Active; 'I' for Inactive)
REMARK    1  A    between atoms: _1  and  _3
REMARK    2  A    between atoms: _3  and  _4
REMARK    3  A    between atoms: _7  and  _9
REMARK    4  A    between atoms: _9  and  _10
REMARK    5  A    between atoms: _9  and  _12
REMARK    6  A    between atoms: _12  and  _13
REMARK    7  A    between atoms: _19  and  _21
REMARK    8  A    between atoms: _21  and  _22
REMARK    9  A    between atoms: _21  and  _24
REMARK   10  A    between atoms: _24  and  _25
REMARK   11  A    between atoms: _30  and  _31
REMARK   12  A    between atoms: _33  and  _35
REMARK   13  A    between atoms: _35  and  _36
REMARK   14  A    between atoms: _38  and  _40
REMARK   15  A    between atoms: _40  and  _41
REMARK   16  A    between atoms: _40  and  _43
REMARK   17  A    between atoms: _43  and  _44
REMARK   18  A    between atoms: _44  and  _45
REMARK   19  A    between atoms: _45  and  _46
REMARK   20  A    between atoms: _46  and  _47
REMARK   21  A    between atoms: _51  and  _53
REMARK   22  A    between atoms: _53  and  _54
REMARK   23  A    between atoms: _53  and  _56
REMARK   24  A    between atoms: _59  and  _61
REMARK   25  A    between atoms: _61  and  _62
REMARK   26  A    between atoms: _61  and  _64
REMARK   27  A    between atoms: _64  and  _65
REMARK   28  A    between atoms: _71  and  _73
REMARK   29  A    between atoms: _73  and  _74
REMARK   30  A    between atoms: _73  and  _76
REMARK   31  A    between atoms: _76  and  _77
REMARK   32  A    between atoms: _77  and  _78
REMARK   33  A    between atoms: _78  and  _79
REMARK   34  A    between atoms: _88  and  _90
REMARK   35  A    between atoms: _90  and  _91
REMARK   36  A    between atoms: _93  and  _95
REMARK   37  A    between atoms: _95  and  _96
REMARK   38  A    between atoms: _95  and  _98
REMARK   39  A    between atoms: _98  and  _99
REMARK   40  A    between atoms: _99  and  _100
REMARK   41  A    between atoms: _100  and  _101
REMARK   42  A    between atoms: _101  and  _102
REMARK   43  A    between atoms: _106  and  _108
REMARK   44  A    between atoms: _108  and  _109
REMARK   45  A    between atoms: _108  and  _111
REMARK   46  A    between atoms: _111  and  _112
REMARK   47  A    between atoms: _115  and  _117
REMARK   48  A    between atoms: _117  and  _118
REMARK   49  A    between atoms: _117  and  _120
REMARK   50  A    between atoms: _120  and  _121
REMARK   51  A    between atoms: _126  and  _127
REMARK   52  A    between atoms: _129  and  _131
REMARK   53  A    between atoms: _131  and  _132
REMARK   54  A    between atoms: _131  and  _134
REMARK   55  A    between atoms: _134  and  _135
REMARK   56  A    between atoms: _135  and  _136
REMARK   57  A    between atoms: _141  and  _143
REMARK   58  A    between atoms: _143  and  _144
REMARK   59  A    between atoms: _143  and  _146
REMARK   60  A    between atoms: _146  and  _147
REMARK   61  A    between atoms: _147  and  _148
REMARK   62  A    between atoms: _148  and  _149
REMARK   63  A    between atoms: _158  and  _160
REMARK   64  A    between atoms: _160  and  _161
REMARK   65  A    between atoms: _163  and  _165
REMARK   66  A    between atoms: _165  and  _166
REMARK   67  A    between atoms: _165  and  _168
REMARK   68  A    between atoms: _168  and  _169
REMARK   69  A    between atoms: _174  and  _176
REMARK   70  A    between atoms: _176  and  _177
REMARK   71  A    between atoms: _176  and  _179
REMARK   72  A    between atoms: _179  and  _180
REMARK   73  A    between atoms: _183  and  _185
REMARK   74  A    between atoms: _185  and  _186
REMARK   75  A    between atoms: _185  and  _188
REMARK   76  A    between atoms: _188  and  _189
REMARK   77  A    between atoms: _192  and  _194
REMARK   78  A    between atoms: _194  and  _195
REMARK   79  A    between atoms: _194  and  _197
REMARK   80  A    between atoms: _197  and  _198
REMARK   81  A    between atoms: _203  and  _205
REMARK   82  A    between atoms: _205  and  _206
REMARK   83  A    between atoms: _205  and  _208
REMARK   84  A    between atoms: _208  and  _209
REMARK   85  A    between atoms: _212  and  _214
REMARK   86  A    between atoms: _214  and  _215
REMARK   87  A    between atoms: _214  and  _217
REMARK   88  A    between atoms: _217  and  _218
REMARK   89  A    between atoms: _223  and  _225
REMARK   90  A    between atoms: _225  and  _226
REMARK   91  A    between atoms: _228  and  _230
REMARK   92  A    between atoms: _230  and  _231
REMARK   93  A    between atoms: _230  and  _233
REMARK   94  A    between atoms: _233  and  _234
REMARK   95  A    between atoms: _238  and  ZN_939
REMARK   96  A    between atoms: _239  and  _241
REMARK   97  A    between atoms: _241  and  _242
REMARK   98  A    between atoms: _241  and  _244
REMARK   99  A    between atoms: _244  and  _245
REMARK  100  A    between atoms: _248  and  _250
REMARK  101  A    between atoms: _250  and  _251
REMARK  102  A    between atoms: _250  and  _253
REMARK  103  A    between atoms: _253  and  _254
REMARK  104  A    between atoms: _264  and  _266
REMARK  105  A    between atoms: _266  and  _267
REMARK  106  A    between atoms: _266  and  _269
REMARK  107  A    between atoms: _269  and  _270
REMARK  108  A    between atoms: _273  and  _275
REMARK  109  A    between atoms: _275  and  _276
REMARK  110  A    between atoms: _275  and  _278
REMARK  111  A    between atoms: _278  and  _279
REMARK  112  A    between atoms: _279  and  _280
REMARK  113  A    between atoms: _279  and  _281
REMARK  114  A    between atoms: _280  and  ZN_939
REMARK  115  A    between atoms: _281  and  ZN_938
REMARK  116  A    between atoms: _283  and  _284
REMARK  117  A    between atoms: _289  and  _291
REMARK  118  A    between atoms: _291  and  _292
REMARK  119  A    between atoms: _295  and  _297
REMARK  120  A    between atoms: _297  and  _298
REMARK  121  A    between atoms: _297  and  _300
REMARK  122  A    between atoms: _300  and  _301
REMARK  123  A    between atoms: _301  and  _302
REMARK  124  A    between atoms: _305  and  _307
REMARK  125  A    between atoms: _307  and  _308
REMARK  126  A    between atoms: _307  and  _310
REMARK  127  A    between atoms: _310  and  _311
REMARK  128  A    between atoms: _311  and  _312
REMARK  129  A    between atoms: _312  and  _314
REMARK  130  A    between atoms: _314  and  ZN_938
REMARK  131  A    between atoms: _315  and  _317
REMARK  132  A    between atoms: _317  and  _318
REMARK  133  A    between atoms: _317  and  _320
REMARK  134  A    between atoms: _320  and  _321
REMARK  135  A    between atoms: _327  and  _329
REMARK  136  A    between atoms: _329  and  _330
REMARK  137  A    between atoms: _332  and  _334
REMARK  138  A    between atoms: _334  and  _335
REMARK  139  A    between atoms: _334  and  _337
REMARK  140  A    between atoms: _337  and  _338
REMARK  141  A    between atoms: _341  and  _343
REMARK  142  A    between atoms: _343  and  _344
REMARK  143  A    between atoms: _343  and  _346
REMARK  144  A    between atoms: _346  and  _347
REMARK  145  A    between atoms: _350  and  _352
REMARK  146  A    between atoms: _352  and  _353
REMARK  147  A    between atoms: _352  and  _355
REMARK  148  A    between atoms: _355  and  _356
REMARK  149  A    between atoms: _361  and  _363
REMARK  150  A    between atoms: _363  and  _364
REMARK  151  A    between atoms: _363  and  _366
REMARK  152  A    between atoms: _366  and  _367
REMARK  153  A    between atoms: _367  and  _369
REMARK  154  A    between atoms: _369  and  ZN_939
REMARK  155  A    between atoms: _370  and  _372
REMARK  156  A    between atoms: _372  and  _373
REMARK  157  A    between atoms: _372  and  _375
REMARK  158  A    between atoms: _375  and  _376
REMARK  159  A    between atoms: _378  and  _380
REMARK  160  A    between atoms: _380  and  _381
REMARK  161  A    between atoms: _380  and  _383
REMARK  162  A    between atoms: _383  and  _384
REMARK  163  A    between atoms: _386  and  _388
REMARK  164  A    between atoms: _388  and  _389
REMARK  165  A    between atoms: _388  and  _391
REMARK  166  A    between atoms: _391  and  _392
REMARK  167  A    between atoms: _395  and  _397
REMARK  168  A    between atoms: _397  and  _398
REMARK  169  A    between atoms: _397  and  _400
REMARK  170  A    between atoms: _400  and  _401
REMARK  171  A    between atoms: _401  and  _402
REMARK  172  A    between atoms: _405  and  _407
REMARK  173  A    between atoms: _407  and  _408
REMARK  174  A    between atoms: _407  and  _410
REMARK  175  A    between atoms: _410  and  _411
REMARK  176  A    between atoms: _416  and  _417
REMARK  177  A    between atoms: _419  and  _421
REMARK  178  A    between atoms: _421  and  _422
REMARK  179  A    between atoms: _421  and  _424
REMARK  180  A    between atoms: _424  and  _425
REMARK  181  A    between atoms: _428  and  _430
REMARK  182  A    between atoms: _430  and  _431
REMARK  183  A    between atoms: _430  and  _433
REMARK  184  A    between atoms: _433  and  _434
REMARK  185  A    between atoms: _437  and  _439
REMARK  186  A    between atoms: _439  and  _440
REMARK  187  A    between atoms: _439  and  _442
REMARK  188  A    between atoms: _442  and  _443
REMARK  189  A    between atoms: _443  and  _444
REMARK  190  A    between atoms: _444  and  _445
REMARK  191  A    between atoms: _454  and  _456
REMARK  192  A    between atoms: _456  and  _457
REMARK  193  A    between atoms: _456  and  _459
REMARK  194  A    between atoms: _462  and  _464
REMARK  195  A    between atoms: _464  and  _465
REMARK  196  A    between atoms: _464  and  _467
REMARK  197  A    between atoms: _467  and  _468
REMARK  198  A    between atoms: _471  and  _473
REMARK  199  A    between atoms: _473  and  _474
REMARK  200  A    between atoms: _473  and  _476
REMARK  201  A    between atoms: _476  and  _477
REMARK  202  A    between atoms: _487  and  _489
REMARK  203  A    between atoms: _489  and  _490
REMARK  204  A    between atoms: _489  and  _492
REMARK  205  A    between atoms: _492  and  _493
REMARK  206  A    between atoms: _493  and  _494
REMARK  207  A    between atoms: _494  and  _495
REMARK  208  A    between atoms: _495  and  _496
REMARK  209  A    between atoms: _500  and  _502
REMARK  210  A    between atoms: _502  and  _503
REMARK  211  A    between atoms: _502  and  _505
REMARK  212  A    between atoms: _505  and  _506
REMARK  213  A    between atoms: _509  and  _510
REMARK  214  A    between atoms: _516  and  _517
REMARK  215  A    between atoms: _522  and  _524
REMARK  216  A    between atoms: _524  and  _525
REMARK  217  A    between atoms: _524  and  _527
REMARK  218  A    between atoms: _527  and  _528
REMARK  219  A    between atoms: _528  and  _529
REMARK  220  A    between atoms: _529  and  _530
REMARK  221  A    between atoms: _539  and  _541
REMARK  222  A    between atoms: _541  and  _542
REMARK  223  A    between atoms: _541  and  _544
REMARK  224  A    between atoms: _544  and  _545
REMARK  225  A    between atoms: _548  and  _550
REMARK  226  A    between atoms: _550  and  _551
REMARK  227  A    between atoms: _550  and  _553
REMARK  228  A    between atoms: _553  and  _554
REMARK  229  A    between atoms: _556  and  _558
REMARK  230  A    between atoms: _558  and  _559
REMARK  231  A    between atoms: _558  and  _561
REMARK  232  A    between atoms: _561  and  _562
REMARK  233  A    between atoms: _562  and  _563
REMARK  234  A    between atoms: _563  and  _564
REMARK  235  A    between atoms: _564  and  _565
REMARK  236  A    between atoms: _569  and  _571
REMARK  237  A    between atoms: _571  and  _572
REMARK  238  A    between atoms: _571  and  _574
REMARK  239  A    between atoms: _574  and  _575
REMARK  240  A    between atoms: _578  and  _580
REMARK  241  A    between atoms: _580  and  _581
REMARK  242  A    between atoms: _583  and  _585
REMARK  243  A    between atoms: _585  and  _586
REMARK  244  A    between atoms: _585  and  _588
REMARK  245  A    between atoms: _588  and  _589
REMARK  246  A    between atoms: _591  and  _593
REMARK  247  A    between atoms: _593  and  _594
REMARK  248  A    between atoms: _596  and  _598
REMARK  249  A    between atoms: _598  and  _599
REMARK  250  A    between atoms: _598  and  _601
REMARK  251  A    between atoms: _601  and  _602
REMARK  252  A    between atoms: _607  and  _609
REMARK  253  A    between atoms: _609  and  _610
REMARK  254  A    between atoms: _609  and  _612
REMARK  255  A    between atoms: _612  and  _613
REMARK  256  A    between atoms: _616  and  _618
REMARK  257  A    between atoms: _618  and  _619
REMARK  258  A    between atoms: _618  and  _621
REMARK  259  A    between atoms: _621  and  _622
REMARK  260  A    between atoms: _628  and  _630
REMARK  261  A    between atoms: _630  and  _631
REMARK  262  A    between atoms: _630  and  _633
REMARK  263  A    between atoms: _633  and  _634
REMARK  264  A    between atoms: _634  and  _635
REMARK  265  A    between atoms: _638  and  _640
REMARK  266  A    between atoms: _640  and  _641
REMARK  267  A    between atoms: _640  and  _643
REMARK  268  A    between atoms: _643  and  _644
REMARK  269  A    between atoms: _644  and  _645
REMARK  270  A    between atoms: _645  and  _646
REMARK  271  A    between atoms: _655  and  _657
REMARK  272  A    between atoms: _657  and  _658
REMARK  273  A    between atoms: _657  and  _660
REMARK  274  A    between atoms: _660  and  _661
REMARK  275  A    between atoms: _661  and  _662
REMARK  276  A    between atoms: _662  and  _663
REMARK  277  A    between atoms: _672  and  _674
REMARK  278  A    between atoms: _674  and  _675
REMARK  279  A    between atoms: _674  and  _677
REMARK  280  A    between atoms: _677  and  _678
REMARK  281  A    between atoms: _683  and  _684
REMARK  282  A    between atoms: _686  and  _688
REMARK  283  A    between atoms: _688  and  _689
REMARK  284  A    between atoms: _688  and  _691
REMARK  285  A    between atoms: _691  and  _692
REMARK  286  A    between atoms: _695  and  _697
REMARK  287  A    between atoms: _697  and  _698
REMARK  288  A    between atoms: _697  and  _700
REMARK  289  A    between atoms: _700  and  _701
REMARK  290  A    between atoms: _701  and  _702
REMARK  291  A    between atoms: _702  and  _703
REMARK  292  A    between atoms: _703  and  _704
REMARK  293  A    between atoms: _708  and  _710
REMARK  294  A    between atoms: _710  and  _711
REMARK  295  A    between atoms: _710  and  _713
REMARK  296  A    between atoms: _713  and  _714
REMARK  297  A    between atoms: _719  and  _721
REMARK  298  A    between atoms: _721  and  _722
REMARK  299  A    between atoms: _721  and  _724
REMARK  300  A    between atoms: _724  and  _725
REMARK  301  A    between atoms: _735  and  _737
REMARK  302  A    between atoms: _737  and  _738
REMARK  303  A    between atoms: _737  and  _740
REMARK  304  A    between atoms: _740  and  _741
REMARK  305  A    between atoms: _741  and  _742
REMARK  306  A    between atoms: _745  and  _747
REMARK  307  A    between atoms: _747  and  _748
REMARK  308  A    between atoms: _747  and  _750
REMARK  309  A    between atoms: _750  and  _751
REMARK  310  A    between atoms: _754  and  _756
REMARK  311  A    between atoms: _756  and  _757
REMARK  312  A    between atoms: _756  and  _759
REMARK  313  A    between atoms: _759  and  _760
REMARK  314  A    between atoms: _765  and  _767
REMARK  315  A    between atoms: _767  and  _768
REMARK  316  A    between atoms: _767  and  _770
REMARK  317  A    between atoms: _770  and  _771
REMARK  318  A    between atoms: _777  and  _779
REMARK  319  A    between atoms: _779  and  _780
REMARK  320  A    between atoms: _779  and  _782
REMARK  321  A    between atoms: _782  and  _783
REMARK  322  A    between atoms: _785  and  _787
REMARK  323  A    between atoms: _787  and  _788
REMARK  324  A    between atoms: _790  and  _792
REMARK  325  A    between atoms: _792  and  _793
REMARK  326  A    between atoms: _792  and  _795
REMARK  327  A    between atoms: _795  and  _796
REMARK  328  A    between atoms: _801  and  _802
REMARK  329  A    between atoms: _804  and  _806
REMARK  330  A    between atoms: _806  and  _807
REMARK  331  A    between atoms: _806  and  _809
REMARK  332  A    between atoms: _809  and  _810
REMARK  333  A    between atoms: _815  and  _816
REMARK  334  A    between atoms: _818  and  _820
REMARK  335  A    between atoms: _820  and  _821
REMARK  336  A    between atoms: _820  and  _823
REMARK  337  A    between atoms: _823  and  _824
REMARK  338  A    between atoms: _828  and  ZN_938
REMARK  339  A    between atoms: _829  and  _831
REMARK  340  A    between atoms: _831  and  _832
REMARK  341  A    between atoms: _831  and  _834
REMARK  342  A    between atoms: _834  and  _835
REMARK  343  A    between atoms: _835  and  _836
REMARK  344  A    between atoms: _839  and  _841
REMARK  345  A    between atoms: _841  and  _842
REMARK  346  A    between atoms: _841  and  _844
REMARK  347  A    between atoms: _844  and  _845
REMARK  348  A    between atoms: _845  and  _846
REMARK  349  A    between atoms: _846  and  _847
REMARK  350  A    between atoms: _856  and  _858
REMARK  351  A    between atoms: _858  and  _859
REMARK  352  A    between atoms: _858  and  _861
REMARK  353  A    between atoms: _861  and  _862
REMARK  354  A    between atoms: _867  and  _868
REMARK  355  A    between atoms: _870  and  _872
REMARK  356  A    between atoms: _872  and  _873
REMARK  357  A    between atoms: _872  and  _875
REMARK  358  A    between atoms: _875  and  _876
REMARK  359  A    between atoms: _878  and  _880
REMARK  360  A    between atoms: _880  and  _881
REMARK  361  A    between atoms: _880  and  _883
REMARK  362  A    between atoms: _883  and  _884
REMARK  363  A    between atoms: _889  and  _891
REMARK  364  A    between atoms: _891  and  _892
REMARK  365  A    between atoms: _891  and  _894
REMARK  366  A    between atoms: _894  and  _895
REMARK  367  A    between atoms: _900  and  _902
REMARK  368  A    between atoms: _902  and  _903
REMARK  369  A    between atoms: _902  and  _905
REMARK  370  A    between atoms: _905  and  _906
REMARK  371  A    between atoms: _906  and  _907
REMARK  372  A    between atoms: _907  and  _908
REMARK  373  A    between atoms: _908  and  _909
REMARK  374  A    between atoms: _913  and  _915
REMARK  375  A    between atoms: _915  and  _916
REMARK  376  A    between atoms: _915  and  _918
REMARK  377  A    between atoms: _918  and  _919
REMARK  378  A    between atoms: _924  and  _925
REMARK  379  A    between atoms: _927  and  _929
REMARK  380  A    between atoms: _929  and  _930
REMARK  381  A    between atoms: _933  and  _935
REMARK  382  A    between atoms: _935  and  _936
REMARK                            x       y       z     vdW  Elec       q    Type
REMARK                         _______ _______ _______ _____ _____    ______ ____
ROOT
ATOM      1  O   HOH     1      28.306  53.339  37.098  0.00  0.00    +0.000 OA
ENDROOT
TORSDOF 0
REMARK  Name = ../refined-set-2016/2xeg/2xeg_pocket.pdb
REMARK  382 active torsions:
REMARK  status: ('A' for Active; 'I' for Inactive)
REMARK    1  A    between atoms: _1  and  _3
REMARK    2  A    between atoms: _3  and  _4
REMARK    3  A    between atoms: _7  and  _9
REMARK    4  A    between atoms: _9  and  _10
REMARK    5  A    between atoms: _9  and  _12
REMARK    6  A    between atoms: _12  and  _13
REMARK    7  A    between atoms: _19  and  _21
REMARK    8  A    between atoms: _21  and  _22
REMARK    9  A    between atoms: _21  and  _24
REMARK   10  A    between atoms: _24  and  _25
REMARK   11  A    between atoms: _30  and  _31
REMARK   12  A    between atoms: _33  and  _35
REMARK   13  A    between atoms: _35  and  _36
REMARK   14  A    between atoms: _38  and  _40
REMARK   15  A    between atoms: _40  and  _41
REMARK   16  A    between atoms: _40  and  _43
REMARK   17  A    between atoms: _43  and  _44
REMARK   18  A    between atoms: _44  and  _45
REMARK   19  A    between atoms: _45  and  _46
REMARK   20  A    between atoms: _46  and  _47
REMARK   21  A    between atoms: _51  and  _53
REMARK   22  A    between atoms: _53  and  _54
REMARK   23  A    between atoms: _53  and  _56
REMARK   24  A    between atoms: _59  and  _61
REMARK   25  A    between atoms: _61  and  _62
REMARK   26  A    between atoms: _61  and  _64
REMARK   27  A    between atoms: _64  and  _65
REMARK   28  A    between atoms: _71  and  _73
REMARK   29  A    between atoms: _73  and  _74
REMARK   30  A    between atoms: _73  and  _76
REMARK   31  A    between atoms: _76  and  _77
REMARK   32  A    between atoms: _77  and  _78
REMARK   33  A    between atoms: _78  and  _79
REMARK   34  A    between atoms: _88  and  _90
REMARK   35  A    between atoms: _90  and  _91
REMARK   36  A    between atoms: _93  and  _95
REMARK   37  A    between atoms: _95  and  _96
REMARK   38  A    between atoms: _95  and  _98
REMARK   39  A    between atoms: _98  and  _99
REMARK   40  A    between atoms: _99  and  _100
REMARK   41  A    between atoms: _100  and  _101
REMARK   42  A    between atoms: _101  and  _102
REMARK   43  A    between atoms: _106  and  _108
REMARK   44  A    between atoms: _108  and  _109
REMARK   45  A    between atoms: _108  and  _111
REMARK   46  A    between atoms: _111  and  _112
REMARK   47  A    between atoms: _115  and  _117
REMARK   48  A    between atoms: _117  and  _118
REMARK   49  A    between atoms: _117  and  _120
REMARK   50  A    between atoms: _120  and  _121
REMARK   51  A    between atoms: _126  and  _127
REMARK   52  A    between atoms: _129  and  _131
REMARK   53  A    between atoms: _131  and  _132
REMARK   54  A    between atoms: _131  and  _134
REMARK   55  A    between atoms: _134  and  _135
REMARK   56  A    between atoms: _135  and  _136
REMARK   57  A    between atoms: _141  and  _143
REMARK   58  A    between atoms: _143  and  _144
REMARK   59  A    between atoms: _143  and  _146
REMARK   60  A    between atoms: _146  and  _147
REMARK   61  A    between atoms: _147  and  _148
REMARK   62  A    between atoms: _148  and  _149
REMARK   63  A    between atoms: _158  and  _160
REMARK   64  A    between atoms: _160  and  _161
REMARK   65  A    between atoms: _163  and  _165
REMARK   66  A    between atoms: _165  and  _166
REMARK   67  A    between atoms: _165  and  _168
REMARK   68  A    between atoms: _168  and  _169
REMARK   69  A    between atoms: _174  and  _176
REMARK   70  A    between atoms: _176  and  _177
REMARK   71  A    between atoms: _176  and  _179
REMARK   72  A    between atoms: _179  and  _180
REMARK   73  A    between atoms: _183  and  _185
REMARK   74  A    between atoms: _185  and  _186
REMARK   75  A    between atoms: _185  and  _188
REMARK   76  A    between atoms: _188  and  _189
REMARK   77  A    between atoms: _192  and  _194
REMARK   78  A    between atoms: _194  and  _195
REMARK   79  A    between atoms: _194  and  _197
REMARK   80  A    between atoms: _197  and  _198
REMARK   81  A    between atoms: _203  and  _205
REMARK   82  A    between atoms: _205  and  _206
REMARK   83  A    between atoms: _205  and  _208
REMARK   84  A    between atoms: _208  and  _209
REMARK   85  A    between atoms: _212  and  _214
REMARK   86  A    between atoms: _214  and  _215
REMARK   87  A    between atoms: _214  and  _217
REMARK   88  A    between atoms: _217  and  _218
REMARK   89  A    between atoms: _223  and  _225
REMARK   90  A    between atoms: _225  and  _226
REMARK   91  A    between atoms: _228  and  _230
REMARK   92  A    between atoms: _230  and  _231
REMARK   93  A    between atoms: _230  and  _233
REMARK   94  A    between atoms: _233  and  _234
REMARK   95  A    between atoms: _238  and  ZN_939
REMARK   96  A    between atoms: _239  and  _241
REMARK   97  A    between atoms: _241  and  _242
REMARK   98  A    between atoms: _241  and  _244
REMARK   99  A    between atoms: _244  and  _245
REMARK  100  A    between atoms: _248  and  _250
REMARK  101  A    between atoms: _250  and  _251
REMARK  102  A    between atoms: _250  and  _253
REMARK  103  A    between atoms: _253  and  _254
REMARK  104  A    between atoms: _264  and  _266
REMARK  105  A    between atoms: _266  and  _267
REMARK  106  A    between atoms: _266  and  _269
REMARK  107  A    between atoms: _269  and  _270
REMARK  108  A    between atoms: _273  and  _275
REMARK  109  A    between atoms: _275  and  _276
REMARK  110  A    between atoms: _275  and  _278
REMARK  111  A    between atoms: _278  and  _279
REMARK  112  A    between atoms: _279  and  _280
REMARK  113  A    between atoms: _279  and  _281
REMARK  114  A    between atoms: _280  and  ZN_939
REMARK  115  A    between atoms: _281  and  ZN_938
REMARK  116  A    between atoms: _283  and  _284
REMARK  117  A    between atoms: _289  and  _291
REMARK  118  A    between atoms: _291  and  _292
REMARK  119  A    between atoms: _295  and  _297
REMARK  120  A    between atoms: _297  and  _298
REMARK  121  A    between atoms: _297  and  _300
REMARK  122  A    between atoms: _300  and  _301
REMARK  123  A    between atoms: _301  and  _302
REMARK  124  A    between atoms: _305  and  _307
REMARK  125  A    between atoms: _307  and  _308
REMARK  126  A    between atoms: _307  and  _310
REMARK  127  A    between atoms: _310  and  _311
REMARK  128  A    between atoms: _311  and  _312
REMARK  129  A    between atoms: _312  and  _314
REMARK  130  A    between atoms: _314  and  ZN_938
REMARK  131  A    between atoms: _315  and  _317
REMARK  132  A    between atoms: _317  and  _318
REMARK  133  A    between atoms: _317  and  _320
REMARK  134  A    between atoms: _320  and  _321
REMARK  135  A    between atoms: _327  and  _329
REMARK  136  A    between atoms: _329  and  _330
REMARK  137  A    between atoms: _332  and  _334
REMARK  138  A    between atoms: _334  and  _335
REMARK  139  A    between atoms: _334  and  _337
REMARK  140  A    between atoms: _337  and  _338
REMARK  141  A    between atoms: _341  and  _343
REMARK  142  A    between atoms: _343  and  _344
REMARK  143  A    between atoms: _343  and  _346
REMARK  144  A    between atoms: _346  and  _347
REMARK  145  A    between atoms: _350  and  _352
REMARK  146  A    between atoms: _352  and  _353
REMARK  147  A    between atoms: _352  and  _355
REMARK  148  A    between atoms: _355  and  _356
REMARK  149  A    between atoms: _361  and  _363
REMARK  150  A    between atoms: _363  and  _364
REMARK  151  A    between atoms: _363  and  _366
REMARK  152  A    between atoms: _366  and  _367
REMARK  153  A    between atoms: _367  and  _369
REMARK  154  A    between atoms: _369  and  ZN_939
REMARK  155  A    between atoms: _370  and  _372
REMARK  156  A    between atoms: _372  and  _373
REMARK  157  A    between atoms: _372  and  _375
REMARK  158  A    between atoms: _375  and  _376
REMARK  159  A    between atoms: _378  and  _380
REMARK  160  A    between atoms: _380  and  _381
REMARK  161  A    between atoms: _380  and  _383
REMARK  162  A    between atoms: _383  and  _384
REMARK  163  A    between atoms: _386  and  _388
REMARK  164  A    between atoms: _388  and  _389
REMARK  165  A    between atoms: _388  and  _391
REMARK  166  A    between atoms: _391  and  _392
REMARK  167  A    between atoms: _395  and  _397
REMARK  168  A    between atoms: _397  and  _398
REMARK  169  A    between atoms: _397  and  _400
REMARK  170  A    between atoms: _400  and  _401
REMARK  171  A    between atoms: _401  and  _402
REMARK  172  A    between atoms: _405  and  _407
REMARK  173  A    between atoms: _407  and  _408
REMARK  174  A    between atoms: _407  and  _410
REMARK  175  A    between atoms: _410  and  _411
REMARK  176  A    between atoms: _416  and  _417
REMARK  177  A    between atoms: _419  and  _421
REMARK  178  A    between atoms: _421  and  _422
REMARK  179  A    between atoms: _421  and  _424
REMARK  180  A    between atoms: _424  and  _425
REMARK  181  A    between atoms: _428  and  _430
REMARK  182  A    between atoms: _430  and  _431
REMARK  183  A    between atoms: _430  and  _433
REMARK  184  A    between atoms: _433  and  _434
REMARK  185  A    between atoms: _437  and  _439
REMARK  186  A    between atoms: _439  and  _440
REMARK  187  A    between atoms: _439  and  _442
REMARK  188  A    between atoms: _442  and  _443
REMARK  189  A    between atoms: _443  and  _444
REMARK  190  A    between atoms: _444  and  _445
REMARK  191  A    between atoms: _454  and  _456
REMARK  192  A    between atoms: _456  and  _457
REMARK  193  A    between atoms: _456  and  _459
REMARK  194  A    between atoms: _462  and  _464
REMARK  195  A    between atoms: _464  and  _465
REMARK  196  A    between atoms: _464  and  _467
REMARK  197  A    between atoms: _467  and  _468
REMARK  198  A    between atoms: _471  and  _473
REMARK  199  A    between atoms: _473  and  _474
REMARK  200  A    between atoms: _473  and  _476
REMARK  201  A    between atoms: _476  and  _477
REMARK  202  A    between atoms: _487  and  _489
REMARK  203  A    between atoms: _489  and  _490
REMARK  204  A    between atoms: _489  and  _492
REMARK  205  A    between atoms: _492  and  _493
REMARK  206  A    between atoms: _493  and  _494
REMARK  207  A    between atoms: _494  and  _495
REMARK  208  A    between atoms: _495  and  _496
REMARK  209  A    between atoms: _500  and  _502
REMARK  210  A    between atoms: _502  and  _503
REMARK  211  A    between atoms: _502  and  _505
REMARK  212  A    between atoms: _505  and  _506
REMARK  213  A    between atoms: _509  and  _510
REMARK  214  A    between atoms: _516  and  _517
REMARK  215  A    between atoms: _522  and  _524
REMARK  216  A    between atoms: _524  and  _525
REMARK  217  A    between atoms: _524  and  _527
REMARK  218  A    between atoms: _527  and  _528
REMARK  219  A    between atoms: _528  and  _529
REMARK  220  A    between atoms: _529  and  _530
REMARK  221  A    between atoms: _539  and  _541
REMARK  222  A    between atoms: _541  and  _542
REMARK  223  A    between atoms: _541  and  _544
REMARK  224  A    between atoms: _544  and  _545
REMARK  225  A    between atoms: _548  and  _550
REMARK  226  A    between atoms: _550  and  _551
REMARK  227  A    between atoms: _550  and  _553
REMARK  228  A    between atoms: _553  and  _554
REMARK  229  A    between atoms: _556  and  _558
REMARK  230  A    between atoms: _558  and  _559
REMARK  231  A    between atoms: _558  and  _561
REMARK  232  A    between atoms: _561  and  _562
REMARK  233  A    between atoms: _562  and  _563
REMARK  234  A    between atoms: _563  and  _564
REMARK  235  A    between atoms: _564  and  _565
REMARK  236  A    between atoms: _569  and  _571
REMARK  237  A    between atoms: _571  and  _572
REMARK  238  A    between atoms: _571  and  _574
REMARK  239  A    between atoms: _574  and  _575
REMARK  240  A    between atoms: _578  and  _580
REMARK  241  A    between atoms: _580  and  _581
REMARK  242  A    between atoms: _583  and  _585
REMARK  243  A    between atoms: _585  and  _586
REMARK  244  A    between atoms: _585  and  _588
REMARK  245  A    between atoms: _588  and  _589
REMARK  246  A    between atoms: _591  and  _593
REMARK  247  A    between atoms: _593  and  _594
REMARK  248  A    between atoms: _596  and  _598
REMARK  249  A    between atoms: _598  and  _599
REMARK  250  A    between atoms: _598  and  _601
REMARK  251  A    between atoms: _601  and  _602
REMARK  252  A    between atoms: _607  and  _609
REMARK  253  A    between atoms: _609  and  _610
REMARK  254  A    between atoms: _609  and  _612
REMARK  255  A    between atoms: _612  and  _613
REMARK  256  A    between atoms: _616  and  _618
REMARK  257  A    between atoms: _618  and  _619
REMARK  258  A    between atoms: _618  and  _621
REMARK  259  A    between atoms: _621  and  _622
REMARK  260  A    between atoms: _628  and  _630
REMARK  261  A    between atoms: _630  and  _631
REMARK  262  A    between atoms: _630  and  _633
REMARK  263  A    between atoms: _633  and  _634
REMARK  264  A    between atoms: _634  and  _635
REMARK  265  A    between atoms: _638  and  _640
REMARK  266  A    between atoms: _640  and  _641
REMARK  267  A    between atoms: _640  and  _643
REMARK  268  A    between atoms: _643  and  _644
REMARK  269  A    between atoms: _644  and  _645
REMARK  270  A    between atoms: _645  and  _646
REMARK  271  A    between atoms: _655  and  _657
REMARK  272  A    between atoms: _657  and  _658
REMARK  273  A    between atoms: _657  and  _660
REMARK  274  A    between atoms: _660  and  _661
REMARK  275  A    between atoms: _661  and  _662
REMARK  276  A    between atoms: _662  and  _663
REMARK  277  A    between atoms: _672  and  _674
REMARK  278  A    between atoms: _674  and  _675
REMARK  279  A    between atoms: _674  and  _677
REMARK  280  A    between atoms: _677  and  _678
REMARK  281  A    between atoms: _683  and  _684
REMARK  282  A    between atoms: _686  and  _688
REMARK  283  A    between atoms: _688  and  _689
REMARK  284  A    between atoms: _688  and  _691
REMARK  285  A    between atoms: _691  and  _692
REMARK  286  A    between atoms: _695  and  _697
REMARK  287  A    between atoms: _697  and  _698
REMARK  288  A    between atoms: _697  and  _700
REMARK  289  A    between atoms: _700  and  _701
REMARK  290  A    between atoms: _701  and  _702
REMARK  291  A    between atoms: _702  and  _703
REMARK  292  A    between atoms: _703  and  _704
REMARK  293  A    between atoms: _708  and  _710
REMARK  294  A    between atoms: _710  and  _711
REMARK  295  A    between atoms: _710  and  _713
REMARK  296  A    between atoms: _713  and  _714
REMARK  297  A    between atoms: _719  and  _721
REMARK  298  A    between atoms: _721  and  _722
REMARK  299  A    between atoms: _721  and  _724
REMARK  300  A    between atoms: _724  and  _725
REMARK  301  A    between atoms: _735  and  _737
REMARK  302  A    between atoms: _737  and  _738
REMARK  303  A    between atoms: _737  and  _740
REMARK  304  A    between atoms: _740  and  _741
REMARK  305  A    between atoms: _741  and  _742
REMARK  306  A    between atoms: _745  and  _747
REMARK  307  A    between atoms: _747  and  _748
REMARK  308  A    between atoms: _747  and  _750
REMARK  309  A    between atoms: _750  and  _751
REMARK  310  A    between atoms: _754  and  _756
REMARK  311  A    between atoms: _756  and  _757
REMARK  312  A    between atoms: _756  and  _759
REMARK  313  A    between atoms: _759  and  _760
REMARK  314  A    between atoms: _765  and  _767
REMARK  315  A    between atoms: _767  and  _768
REMARK  316  A    between atoms: _767  and  _770
REMARK  317  A    between atoms: _770  and  _771
REMARK  318  A    between atoms: _777  and  _779
REMARK  319  A    between atoms: _779  and  _780
REMARK  320  A    between atoms: _779  and  _782
REMARK  321  A    between atoms: _782  and  _783
REMARK  322  A    between atoms: _785  and  _787
REMARK  323  A    between atoms: _787  and  _788
REMARK  324  A    between atoms: _790  and  _792
REMARK  325  A    between atoms: _792  and  _793
REMARK  326  A    between atoms: _792  and  _795
REMARK  327  A    between atoms: _795  and  _796
REMARK  328  A    between atoms: _801  and  _802
REMARK  329  A    between atoms: _804  and  _806
REMARK  330  A    between atoms: _806  and  _807
REMARK  331  A    between atoms: _806  and  _809
REMARK  332  A    between atoms: _809  and  _810
REMARK  333  A    between atoms: _815  and  _816
REMARK  334  A    between atoms: _818  and  _820
REMARK  335  A    between atoms: _820  and  _821
REMARK  336  A    between atoms: _820  and  _823
REMARK  337  A    between atoms: _823  and  _824
REMARK  338  A    between atoms: _828  and  ZN_938
REMARK  339  A    between atoms: _829  and  _831
REMARK  340  A    between atoms: _831  and  _832
REMARK  341  A    between atoms: _831  and  _834
REMARK  342  A    between atoms: _834  and  _835
REMARK  343  A    between atoms: _835  and  _836
REMARK  344  A    between atoms: _839  and  _841
REMARK  345  A    between atoms: _841  and  _842
REMARK  346  A    between atoms: _841  and  _844
REMARK  347  A    between atoms: _844  and  _845
REMARK  348  A    between atoms: _845  and  _846
REMARK  349  A    between atoms: _846  and  _847
REMARK  350  A    between atoms: _856  and  _858
REMARK  351  A    between atoms: _858  and  _859
REMARK  352  A    between atoms: _858  and  _861
REMARK  353  A    between atoms: _861  and  _862
REMARK  354  A    between atoms: _867  and  _868
REMARK  355  A    between atoms: _870  and  _872
REMARK  356  A    between atoms: _872  and  _873
REMARK  357  A    between atoms: _872  and  _875
REMARK  358  A    between atoms: _875  and  _876
REMARK  359  A    between atoms: _878  and  _880
REMARK  360  A    between atoms: _880  and  _881
REMARK  361  A    between atoms: _880  and  _883
REMARK  362  A    between atoms: _883  and  _884
REMARK  363  A    between atoms: _889  and  _891
REMARK  364  A    between atoms: _891  and  _892
REMARK  365  A    between atoms: _891  and  _894
REMARK  366  A    between atoms: _894  and  _895
REMARK  367  A    between atoms: _900  and  _902
REMARK  368  A    between atoms: _902  and  _903
REMARK  369  A    between atoms: _902  and  _905
REMARK  370  A    between atoms: _905  and  _906
REMARK  371  A    between atoms: _906  and  _907
REMARK  372  A    between atoms: _907  and  _908
REMARK  373  A    between atoms: _908  and  _909
REMARK  374  A    between atoms: _913  and  _915
REMARK  375  A    between atoms: _915  and  _916
REMARK  376  A    between atoms: _915  and  _918
REMARK  377  A    between atoms: _918  and  _919
REMARK  378  A    between atoms: _924  and  _925
REMARK  379  A    between atoms: _927  and  _929
REMARK  380  A    between atoms: _929  and  _930
REMARK  381  A    between atoms: _933  and  _935
REMARK  382  A    between atoms: _935  and  _936
REMARK                            x       y       z     vdW  Elec       q    Type
REMARK                         _______ _______ _______ _____ _____    ______ ____
ROOT
ATOM      1  O   HOH     1      32.095  49.093  37.775  0.00  0.00    +0.000 OA
ENDROOT
TORSDOF 0
REMARK  Name = ../refined-set-2016/2xeg/2xeg_pocket.pdb
REMARK  382 active torsions:
REMARK  status: ('A' for Active; 'I' for Inactive)
REMARK    1  A    between atoms: _1  and  _3
REMARK    2  A    between atoms: _3  and  _4
REMARK    3  A    between atoms: _7  and  _9
REMARK    4  A    between atoms: _9  and  _10
REMARK    5  A    between atoms: _9  and  _12
REMARK    6  A    between atoms: _12  and  _13
REMARK    7  A    between atoms: _19  and  _21
REMARK    8  A    between atoms: _21  and  _22
REMARK    9  A    between atoms: _21  and  _24
REMARK   10  A    between atoms: _24  and  _25
REMARK   11  A    between atoms: _30  and  _31
REMARK   12  A    between atoms: _33  and  _35
REMARK   13  A    between atoms: _35  and  _36
REMARK   14  A    between atoms: _38  and  _40
REMARK   15  A    between atoms: _40  and  _41
REMARK   16  A    between atoms: _40  and  _43
REMARK   17  A    between atoms: _43  and  _44
REMARK   18  A    between atoms: _44  and  _45
REMARK   19  A    between atoms: _45  and  _46
REMARK   20  A    between atoms: _46  and  _47
REMARK   21  A    between atoms: _51  and  _53
REMARK   22  A    between atoms: _53  and  _54
REMARK   23  A    between atoms: _53  and  _56
REMARK   24  A    between atoms: _59  and  _61
REMARK   25  A    between atoms: _61  and  _62
REMARK   26  A    between atoms: _61  and  _64
REMARK   27  A    between atoms: _64  and  _65
REMARK   28  A    between atoms: _71  and  _73
REMARK   29  A    between atoms: _73  and  _74
REMARK   30  A    between atoms: _73  and  _76
REMARK   31  A    between atoms: _76  and  _77
REMARK   32  A    between atoms: _77  and  _78
REMARK   33  A    between atoms: _78  and  _79
REMARK   34  A    between atoms: _88  and  _90
REMARK   35  A    between atoms: _90  and  _91
REMARK   36  A    between atoms: _93  and  _95
REMARK   37  A    between atoms: _95  and  _96
REMARK   38  A    between atoms: _95  and  _98
REMARK   39  A    between atoms: _98  and  _99
REMARK   40  A    between atoms: _99  and  _100
REMARK   41  A    between atoms: _100  and  _101
REMARK   42  A    between atoms: _101  and  _102
REMARK   43  A    between atoms: _106  and  _108
REMARK   44  A    between atoms: _108  and  _109
REMARK   45  A    between atoms: _108  and  _111
REMARK   46  A    between atoms: _111  and  _112
REMARK   47  A    between atoms: _115  and  _117
REMARK   48  A    between atoms: _117  and  _118
REMARK   49  A    between atoms: _117  and  _120
REMARK   50  A    between atoms: _120  and  _121
REMARK   51  A    between atoms: _126  and  _127
REMARK   52  A    between atoms: _129  and  _131
REMARK   53  A    between atoms: _131  and  _132
REMARK   54  A    between atoms: _131  and  _134
REMARK   55  A    between atoms: _134  and  _135
REMARK   56  A    between atoms: _135  and  _136
REMARK   57  A    between atoms: _141  and  _143
REMARK   58  A    between atoms: _143  and  _144
REMARK   59  A    between atoms: _143  and  _146
REMARK   60  A    between atoms: _146  and  _147
REMARK   61  A    between atoms: _147  and  _148
REMARK   62  A    between atoms: _148  and  _149
REMARK   63  A    between atoms: _158  and  _160
REMARK   64  A    between atoms: _160  and  _161
REMARK   65  A    between atoms: _163  and  _165
REMARK   66  A    between atoms: _165  and  _166
REMARK   67  A    between atoms: _165  and  _168
REMARK   68  A    between atoms: _168  and  _169
REMARK   69  A    between atoms: _174  and  _176
REMARK   70  A    between atoms: _176  and  _177
REMARK   71  A    between atoms: _176  and  _179
REMARK   72  A    between atoms: _179  and  _180
REMARK   73  A    between atoms: _183  and  _185
REMARK   74  A    between atoms: _185  and  _186
REMARK   75  A    between atoms: _185  and  _188
REMARK   76  A    between atoms: _188  and  _189
REMARK   77  A    between atoms: _192  and  _194
REMARK   78  A    between atoms: _194  and  _195
REMARK   79  A    between atoms: _194  and  _197
REMARK   80  A    between atoms: _197  and  _198
REMARK   81  A    between atoms: _203  and  _205
REMARK   82  A    between atoms: _205  and  _206
REMARK   83  A    between atoms: _205  and  _208
REMARK   84  A    between atoms: _208  and  _209
REMARK   85  A    between atoms: _212  and  _214
REMARK   86  A    between atoms: _214  and  _215
REMARK   87  A    between atoms: _214  and  _217
REMARK   88  A    between atoms: _217  and  _218
REMARK   89  A    between atoms: _223  and  _225
REMARK   90  A    between atoms: _225  and  _226
REMARK   91  A    between atoms: _228  and  _230
REMARK   92  A    between atoms: _230  and  _231
REMARK   93  A    between atoms: _230  and  _233
REMARK   94  A    between atoms: _233  and  _234
REMARK   95  A    between atoms: _238  and  ZN_939
REMARK   96  A    between atoms: _239  and  _241
REMARK   97  A    between atoms: _241  and  _242
REMARK   98  A    between atoms: _241  and  _244
REMARK   99  A    between atoms: _244  and  _245
REMARK  100  A    between atoms: _248  and  _250
REMARK  101  A    between atoms: _250  and  _251
REMARK  102  A    between atoms: _250  and  _253
REMARK  103  A    between atoms: _253  and  _254
REMARK  104  A    between atoms: _264  and  _266
REMARK  105  A    between atoms: _266  and  _267
REMARK  106  A    between atoms: _266  and  _269
REMARK  107  A    between atoms: _269  and  _270
REMARK  108  A    between atoms: _273  and  _275
REMARK  109  A    between atoms: _275  and  _276
REMARK  110  A    between atoms: _275  and  _278
REMARK  111  A    between atoms: _278  and  _279
REMARK  112  A    between atoms: _279  and  _280
REMARK  113  A    between atoms: _279  and  _281
REMARK  114  A    between atoms: _280  and  ZN_939
REMARK  115  A    between atoms: _281  and  ZN_938
REMARK  116  A    between atoms: _283  and  _284
REMARK  117  A    between atoms: _289  and  _291
REMARK  118  A    between atoms: _291  and  _292
REMARK  119  A    between atoms: _295  and  _297
REMARK  120  A    between atoms: _297  and  _298
REMARK  121  A    between atoms: _297  and  _300
REMARK  122  A    between atoms: _300  and  _301
REMARK  123  A    between atoms: _301  and  _302
REMARK  124  A    between atoms: _305  and  _307
REMARK  125  A    between atoms: _307  and  _308
REMARK  126  A    between atoms: _307  and  _310
REMARK  127  A    between atoms: _310  and  _311
REMARK  128  A    between atoms: _311  and  _312
REMARK  129  A    between atoms: _312  and  _314
REMARK  130  A    between atoms: _314  and  ZN_938
REMARK  131  A    between atoms: _315  and  _317
REMARK  132  A    between atoms: _317  and  _318
REMARK  133  A    between atoms: _317  and  _320
REMARK  134  A    between atoms: _320  and  _321
REMARK  135  A    between atoms: _327  and  _329
REMARK  136  A    between atoms: _329  and  _330
REMARK  137  A    between atoms: _332  and  _334
REMARK  138  A    between atoms: _334  and  _335
REMARK  139  A    between atoms: _334  and  _337
REMARK  140  A    between atoms: _337  and  _338
REMARK  141  A    between atoms: _341  and  _343
REMARK  142  A    between atoms: _343  and  _344
REMARK  143  A    between atoms: _343  and  _346
REMARK  144  A    between atoms: _346  and  _347
REMARK  145  A    between atoms: _350  and  _352
REMARK  146  A    between atoms: _352  and  _353
REMARK  147  A    between atoms: _352  and  _355
REMARK  148  A    between atoms: _355  and  _356
REMARK  149  A    between atoms: _361  and  _363
REMARK  150  A    between atoms: _363  and  _364
REMARK  151  A    between atoms: _363  and  _366
REMARK  152  A    between atoms: _366  and  _367
REMARK  153  A    between atoms: _367  and  _369
REMARK  154  A    between atoms: _369  and  ZN_939
REMARK  155  A    between atoms: _370  and  _372
REMARK  156  A    between atoms: _372  and  _373
REMARK  157  A    between atoms: _372  and  _375
REMARK  158  A    between atoms: _375  and  _376
REMARK  159  A    between atoms: _378  and  _380
REMARK  160  A    between atoms: _380  and  _381
REMARK  161  A    between atoms: _380  and  _383
REMARK  162  A    between atoms: _383  and  _384
REMARK  163  A    between atoms: _386  and  _388
REMARK  164  A    between atoms: _388  and  _389
REMARK  165  A    between atoms: _388  and  _391
REMARK  166  A    between atoms: _391  and  _392
REMARK  167  A    between atoms: _395  and  _397
REMARK  168  A    between atoms: _397  and  _398
REMARK  169  A    between atoms: _397  and  _400
REMARK  170  A    between atoms: _400  and  _401
REMARK  171  A    between atoms: _401  and  _402
REMARK  172  A    between atoms: _405  and  _407
REMARK  173  A    between atoms: _407  and  _408
REMARK  174  A    between atoms: _407  and  _410
REMARK  175  A    between atoms: _410  and  _411
REMARK  176  A    between atoms: _416  and  _417
REMARK  177  A    between atoms: _419  and  _421
REMARK  178  A    between atoms: _421  and  _422
REMARK  179  A    between atoms: _421  and  _424
REMARK  180  A    between atoms: _424  and  _425
REMARK  181  A    between atoms: _428  and  _430
REMARK  182  A    between atoms: _430  and  _431
REMARK  183  A    between atoms: _430  and  _433
REMARK  184  A    between atoms: _433  and  _434
REMARK  185  A    between atoms: _437  and  _439
REMARK  186  A    between atoms: _439  and  _440
REMARK  187  A    between atoms: _439  and  _442
REMARK  188  A    between atoms: _442  and  _443
REMARK  189  A    between atoms: _443  and  _444
REMARK  190  A    between atoms: _444  and  _445
REMARK  191  A    between atoms: _454  and  _456
REMARK  192  A    between atoms: _456  and  _457
REMARK  193  A    between atoms: _456  and  _459
REMARK  194  A    between atoms: _462  and  _464
REMARK  195  A    between atoms: _464  and  _465
REMARK  196  A    between atoms: _464  and  _467
REMARK  197  A    between atoms: _467  and  _468
REMARK  198  A    between atoms: _471  and  _473
REMARK  199  A    between atoms: _473  and  _474
REMARK  200  A    between atoms: _473  and  _476
REMARK  201  A    between atoms: _476  and  _477
REMARK  202  A    between atoms: _487  and  _489
REMARK  203  A    between atoms: _489  and  _490
REMARK  204  A    between atoms: _489  and  _492
REMARK  205  A    between atoms: _492  and  _493
REMARK  206  A    between atoms: _493  and  _494
REMARK  207  A    between atoms: _494  and  _495
REMARK  208  A    between atoms: _495  and  _496
REMARK  209  A    between atoms: _500  and  _502
REMARK  210  A    between atoms: _502  and  _503
REMARK  211  A    between atoms: _502  and  _505
REMARK  212  A    between atoms: _505  and  _506
REMARK  213  A    between atoms: _509  and  _510
REMARK  214  A    between atoms: _516  and  _517
REMARK  215  A    between atoms: _522  and  _524
REMARK  216  A    between atoms: _524  and  _525
REMARK  217  A    between atoms: _524  and  _527
REMARK  218  A    between atoms: _527  and  _528
REMARK  219  A    between atoms: _528  and  _529
REMARK  220  A    between atoms: _529  and  _530
REMARK  221  A    between atoms: _539  and  _541
REMARK  222  A    between atoms: _541  and  _542
REMARK  223  A    between atoms: _541  and  _544
REMARK  224  A    between atoms: _544  and  _545
REMARK  225  A    between atoms: _548  and  _550
REMARK  226  A    between atoms: _550  and  _551
REMARK  227  A    between atoms: _550  and  _553
REMARK  228  A    between atoms: _553  and  _554
REMARK  229  A    between atoms: _556  and  _558
REMARK  230  A    between atoms: _558  and  _559
REMARK  231  A    between atoms: _558  and  _561
REMARK  232  A    between atoms: _561  and  _562
REMARK  233  A    between atoms: _562  and  _563
REMARK  234  A    between atoms: _563  and  _564
REMARK  235  A    between atoms: _564  and  _565
REMARK  236  A    between atoms: _569  and  _571
REMARK  237  A    between atoms: _571  and  _572
REMARK  238  A    between atoms: _571  and  _574
REMARK  239  A    between atoms: _574  and  _575
REMARK  240  A    between atoms: _578  and  _580
REMARK  241  A    between atoms: _580  and  _581
REMARK  242  A    between atoms: _583  and  _585
REMARK  243  A    between atoms: _585  and  _586
REMARK  244  A    between atoms: _585  and  _588
REMARK  245  A    between atoms: _588  and  _589
REMARK  246  A    between atoms: _591  and  _593
REMARK  247  A    between atoms: _593  and  _594
REMARK  248  A    between atoms: _596  and  _598
REMARK  249  A    between atoms: _598  and  _599
REMARK  250  A    between atoms: _598  and  _601
REMARK  251  A    between atoms: _601  and  _602
REMARK  252  A    between atoms: _607  and  _609
REMARK  253  A    between atoms: _609  and  _610
REMARK  254  A    between atoms: _609  and  _612
REMARK  255  A    between atoms: _612  and  _613
REMARK  256  A    between atoms: _616  and  _618
REMARK  257  A    between atoms: _618  and  _619
REMARK  258  A    between atoms: _618  and  _621
REMARK  259  A    between atoms: _621  and  _622
REMARK  260  A    between atoms: _628  and  _630
REMARK  261  A    between atoms: _630  and  _631
REMARK  262  A    between atoms: _630  and  _633
REMARK  263  A    between atoms: _633  and  _634
REMARK  264  A    between atoms: _634  and  _635
REMARK  265  A    between atoms: _638  and  _640
REMARK  266  A    between atoms: _640  and  _641
REMARK  267  A    between atoms: _640  and  _643
REMARK  268  A    between atoms: _643  and  _644
REMARK  269  A    between atoms: _644  and  _645
REMARK  270  A    between atoms: _645  and  _646
REMARK  271  A    between atoms: _655  and  _657
REMARK  272  A    between atoms: _657  and  _658
REMARK  273  A    between atoms: _657  and  _660
REMARK  274  A    between atoms: _660  and  _661
REMARK  275  A    between atoms: _661  and  _662
REMARK  276  A    between atoms: _662  and  _663
REMARK  277  A    between atoms: _672  and  _674
REMARK  278  A    between atoms: _674  and  _675
REMARK  279  A    between atoms: _674  and  _677
REMARK  280  A    between atoms: _677  and  _678
REMARK  281  A    between atoms: _683  and  _684
REMARK  282  A    between atoms: _686  and  _688
REMARK  283  A    between atoms: _688  and  _689
REMARK  284  A    between atoms: _688  and  _691
REMARK  285  A    between atoms: _691  and  _692
REMARK  286  A    between atoms: _695  and  _697
REMARK  287  A    between atoms: _697  and  _698
REMARK  288  A    between atoms: _697  and  _700
REMARK  289  A    between atoms: _700  and  _701
REMARK  290  A    between atoms: _701  and  _702
REMARK  291  A    between atoms: _702  and  _703
REMARK  292  A    between atoms: _703  and  _704
REMARK  293  A    between atoms: _708  and  _710
REMARK  294  A    between atoms: _710  and  _711
REMARK  295  A    between atoms: _710  and  _713
REMARK  296  A    between atoms: _713  and  _714
REMARK  297  A    between atoms: _719  and  _721
REMARK  298  A    between atoms: _721  and  _722
REMARK  299  A    between atoms: _721  and  _724
REMARK  300  A    between atoms: _724  and  _725
REMARK  301  A    between atoms: _735  and  _737
REMARK  302  A    between atoms: _737  and  _738
REMARK  303  A    between atoms: _737  and  _740
REMARK  304  A    between atoms: _740  and  _741
REMARK  305  A    between atoms: _741  and  _742
REMARK  306  A    between atoms: _745  and  _747
REMARK  307  A    between atoms: _747  and  _748
REMARK  308  A    between atoms: _747  and  _750
REMARK  309  A    between atoms: _750  and  _751
REMARK  310  A    between atoms: _754  and  _756
REMARK  311  A    between atoms: _756  and  _757
REMARK  312  A    between atoms: _756  and  _759
REMARK  313  A    between atoms: _759  and  _760
REMARK  314  A    between atoms: _765  and  _767
REMARK  315  A    between atoms: _767  and  _768
REMARK  316  A    between atoms: _767  and  _770
REMARK  317  A    between atoms: _770  and  _771
REMARK  318  A    between atoms: _777  and  _779
REMARK  319  A    between atoms: _779  and  _780
REMARK  320  A    between atoms: _779  and  _782
REMARK  321  A    between atoms: _782  and  _783
REMARK  322  A    between atoms: _785  and  _787
REMARK  323  A    between atoms: _787  and  _788
REMARK  324  A    between atoms: _790  and  _792
REMARK  325  A    between atoms: _792  and  _793
REMARK  326  A    between atoms: _792  and  _795
REMARK  327  A    between atoms: _795  and  _796
REMARK  328  A    between atoms: _801  and  _802
REMARK  329  A    between atoms: _804  and  _806
REMARK  330  A    between atoms: _806  and  _807
REMARK  331  A    between atoms: _806  and  _809
REMARK  332  A    between atoms: _809  and  _810
REMARK  333  A    between atoms: _815  and  _816
REMARK  334  A    between atoms: _818  and  _820
REMARK  335  A    between atoms: _820  and  _821
REMARK  336  A    between atoms: _820  and  _823
REMARK  337  A    between atoms: _823  and  _824
REMARK  338  A    between atoms: _828  and  ZN_938
REMARK  339  A    between atoms: _829  and  _831
REMARK  340  A    between atoms: _831  and  _832
REMARK  341  A    between atoms: _831  and  _834
REMARK  342  A    between atoms: _834  and  _835
REMARK  343  A    between atoms: _835  and  _836
REMARK  344  A    between atoms: _839  and  _841
REMARK  345  A    between atoms: _841  and  _842
REMARK  346  A    between atoms: _841  and  _844
REMARK  347  A    between atoms: _844  and  _845
REMARK  348  A    between atoms: _845  and  _846
REMARK  349  A    between atoms: _846  and  _847
REMARK  350  A    between atoms: _856  and  _858
REMARK  351  A    between atoms: _858  and  _859
REMARK  352  A    between atoms: _858  and  _861
REMARK  353  A    between atoms: _861  and  _862
REMARK  354  A    between atoms: _867  and  _868
REMARK  355  A    between atoms: _870  and  _872
REMARK  356  A    between atoms: _872  and  _873
REMARK  357  A    between atoms: _872  and  _875
REMARK  358  A    between atoms: _875  and  _876
REMARK  359  A    between atoms: _878  and  _880
REMARK  360  A    between atoms: _880  and  _881
REMARK  361  A    between atoms: _880  and  _883
REMARK  362  A    between atoms: _883  and  _884
REMARK  363  A    between atoms: _889  and  _891
REMARK  364  A    between atoms: _891  and  _892
REMARK  365  A    between atoms: _891  and  _894
REMARK  366  A    between atoms: _894  and  _895
REMARK  367  A    between atoms: _900  and  _902
REMARK  368  A    between atoms: _902  and  _903
REMARK  369  A    between atoms: _902  and  _905
REMARK  370  A    between atoms: _905  and  _906
REMARK  371  A    between atoms: _906  and  _907
REMARK  372  A    between atoms: _907  and  _908
REMARK  373  A    between atoms: _908  and  _909
REMARK  374  A    between atoms: _913  and  _915
REMARK  375  A    between atoms: _915  and  _916
REMARK  376  A    between atoms: _915  and  _918
REMARK  377  A    between atoms: _918  and  _919
REMARK  378  A    between atoms: _924  and  _925
REMARK  379  A    between atoms: _927  and  _929
REMARK  380  A    between atoms: _929  and  _930
REMARK  381  A    between atoms: _933  and  _935
REMARK  382  A    between atoms: _935  and  _936
REMARK                            x       y       z     vdW  Elec       q    Type
REMARK                         _______ _______ _______ _____ _____    ______ ____
ROOT
ATOM      1  O   HOH     1      23.055  44.349  36.724  0.00  0.00    +0.000 OA
ENDROOT
TORSDOF 0
REMARK  Name = ../refined-set-2016/2xeg/2xeg_pocket.pdb
REMARK  382 active torsions:
REMARK  status: ('A' for Active; 'I' for Inactive)
REMARK    1  A    between atoms: _1  and  _3
REMARK    2  A    between atoms: _3  and  _4
REMARK    3  A    between atoms: _7  and  _9
REMARK    4  A    between atoms: _9  and  _10
REMARK    5  A    between atoms: _9  and  _12
REMARK    6  A    between atoms: _12  and  _13
REMARK    7  A    between atoms: _19  and  _21
REMARK    8  A    between atoms: _21  and  _22
REMARK    9  A    between atoms: _21  and  _24
REMARK   10  A    between atoms: _24  and  _25
REMARK   11  A    between atoms: _30  and  _31
REMARK   12  A    between atoms: _33  and  _35
REMARK   13  A    between atoms: _35  and  _36
REMARK   14  A    between atoms: _38  and  _40
REMARK   15  A    between atoms: _40  and  _41
REMARK   16  A    between atoms: _40  and  _43
REMARK   17  A    between atoms: _43  and  _44
REMARK   18  A    between atoms: _44  and  _45
REMARK   19  A    between atoms: _45  and  _46
REMARK   20  A    between atoms: _46  and  _47
REMARK   21  A    between atoms: _51  and  _53
REMARK   22  A    between atoms: _53  and  _54
REMARK   23  A    between atoms: _53  and  _56
REMARK   24  A    between atoms: _59  and  _61
REMARK   25  A    between atoms: _61  and  _62
REMARK   26  A    between atoms: _61  and  _64
REMARK   27  A    between atoms: _64  and  _65
REMARK   28  A    between atoms: _71  and  _73
REMARK   29  A    between atoms: _73  and  _74
REMARK   30  A    between atoms: _73  and  _76
REMARK   31  A    between atoms: _76  and  _77
REMARK   32  A    between atoms: _77  and  _78
REMARK   33  A    between atoms: _78  and  _79
REMARK   34  A    between atoms: _88  and  _90
REMARK   35  A    between atoms: _90  and  _91
REMARK   36  A    between atoms: _93  and  _95
REMARK   37  A    between atoms: _95  and  _96
REMARK   38  A    between atoms: _95  and  _98
REMARK   39  A    between atoms: _98  and  _99
REMARK   40  A    between atoms: _99  and  _100
REMARK   41  A    between atoms: _100  and  _101
REMARK   42  A    between atoms: _101  and  _102
REMARK   43  A    between atoms: _106  and  _108
REMARK   44  A    between atoms: _108  and  _109
REMARK   45  A    between atoms: _108  and  _111
REMARK   46  A    between atoms: _111  and  _112
REMARK   47  A    between atoms: _115  and  _117
REMARK   48  A    between atoms: _117  and  _118
REMARK   49  A    between atoms: _117  and  _120
REMARK   50  A    between atoms: _120  and  _121
REMARK   51  A    between atoms: _126  and  _127
REMARK   52  A    between atoms: _129  and  _131
REMARK   53  A    between atoms: _131  and  _132
REMARK   54  A    between atoms: _131  and  _134
REMARK   55  A    between atoms: _134  and  _135
REMARK   56  A    between atoms: _135  and  _136
REMARK   57  A    between atoms: _141  and  _143
REMARK   58  A    between atoms: _143  and  _144
REMARK   59  A    between atoms: _143  and  _146
REMARK   60  A    between atoms: _146  and  _147
REMARK   61  A    between atoms: _147  and  _148
REMARK   62  A    between atoms: _148  and  _149
REMARK   63  A    between atoms: _158  and  _160
REMARK   64  A    between atoms: _160  and  _161
REMARK   65  A    between atoms: _163  and  _165
REMARK   66  A    between atoms: _165  and  _166
REMARK   67  A    between atoms: _165  and  _168
REMARK   68  A    between atoms: _168  and  _169
REMARK   69  A    between atoms: _174  and  _176
REMARK   70  A    between atoms: _176  and  _177
REMARK   71  A    between atoms: _176  and  _179
REMARK   72  A    between atoms: _179  and  _180
REMARK   73  A    between atoms: _183  and  _185
REMARK   74  A    between atoms: _185  and  _186
REMARK   75  A    between atoms: _185  and  _188
REMARK   76  A    between atoms: _188  and  _189
REMARK   77  A    between atoms: _192  and  _194
REMARK   78  A    between atoms: _194  and  _195
REMARK   79  A    between atoms: _194  and  _197
REMARK   80  A    between atoms: _197  and  _198
REMARK   81  A    between atoms: _203  and  _205
REMARK   82  A    between atoms: _205  and  _206
REMARK   83  A    between atoms: _205  and  _208
REMARK   84  A    between atoms: _208  and  _209
REMARK   85  A    between atoms: _212  and  _214
REMARK   86  A    between atoms: _214  and  _215
REMARK   87  A    between atoms: _214  and  _217
REMARK   88  A    between atoms: _217  and  _218
REMARK   89  A    between atoms: _223  and  _225
REMARK   90  A    between atoms: _225  and  _226
REMARK   91  A    between atoms: _228  and  _230
REMARK   92  A    between atoms: _230  and  _231
REMARK   93  A    between atoms: _230  and  _233
REMARK   94  A    between atoms: _233  and  _234
REMARK   95  A    between atoms: _238  and  ZN_939
REMARK   96  A    between atoms: _239  and  _241
REMARK   97  A    between atoms: _241  and  _242
REMARK   98  A    between atoms: _241  and  _244
REMARK   99  A    between atoms: _244  and  _245
REMARK  100  A    between atoms: _248  and  _250
REMARK  101  A    between atoms: _250  and  _251
REMARK  102  A    between atoms: _250  and  _253
REMARK  103  A    between atoms: _253  and  _254
REMARK  104  A    between atoms: _264  and  _266
REMARK  105  A    between atoms: _266  and  _267
REMARK  106  A    between atoms: _266  and  _269
REMARK  107  A    between atoms: _269  and  _270
REMARK  108  A    between atoms: _273  and  _275
REMARK  109  A    between atoms: _275  and  _276
REMARK  110  A    between atoms: _275  and  _278
REMARK  111  A    between atoms: _278  and  _279
REMARK  112  A    between atoms: _279  and  _280
REMARK  113  A    between atoms: _279  and  _281
REMARK  114  A    between atoms: _280  and  ZN_939
REMARK  115  A    between atoms: _281  and  ZN_938
REMARK  116  A    between atoms: _283  and  _284
REMARK  117  A    between atoms: _289  and  _291
REMARK  118  A    between atoms: _291  and  _292
REMARK  119  A    between atoms: _295  and  _297
REMARK  120  A    between atoms: _297  and  _298
REMARK  121  A    between atoms: _297  and  _300
REMARK  122  A    between atoms: _300  and  _301
REMARK  123  A    between atoms: _301  and  _302
REMARK  124  A    between atoms: _305  and  _307
REMARK  125  A    between atoms: _307  and  _308
REMARK  126  A    between atoms: _307  and  _310
REMARK  127  A    between atoms: _310  and  _311
REMARK  128  A    between atoms: _311  and  _312
REMARK  129  A    between atoms: _312  and  _314
REMARK  130  A    between atoms: _314  and  ZN_938
REMARK  131  A    between atoms: _315  and  _317
REMARK  132  A    between atoms: _317  and  _318
REMARK  133  A    between atoms: _317  and  _320
REMARK  134  A    between atoms: _320  and  _321
REMARK  135  A    between atoms: _327  and  _329
REMARK  136  A    between atoms: _329  and  _330
REMARK  137  A    between atoms: _332  and  _334
REMARK  138  A    between atoms: _334  and  _335
REMARK  139  A    between atoms: _334  and  _337
REMARK  140  A    between atoms: _337  and  _338
REMARK  141  A    between atoms: _341  and  _343
REMARK  142  A    between atoms: _343  and  _344
REMARK  143  A    between atoms: _343  and  _346
REMARK  144  A    between atoms: _346  and  _347
REMARK  145  A    between atoms: _350  and  _352
REMARK  146  A    between atoms: _352  and  _353
REMARK  147  A    between atoms: _352  and  _355
REMARK  148  A    between atoms: _355  and  _356
REMARK  149  A    between atoms: _361  and  _363
REMARK  150  A    between atoms: _363  and  _364
REMARK  151  A    between atoms: _363  and  _366
REMARK  152  A    between atoms: _366  and  _367
REMARK  153  A    between atoms: _367  and  _369
REMARK  154  A    between atoms: _369  and  ZN_939
REMARK  155  A    between atoms: _370  and  _372
REMARK  156  A    between atoms: _372  and  _373
REMARK  157  A    between atoms: _372  and  _375
REMARK  158  A    between atoms: _375  and  _376
REMARK  159  A    between atoms: _378  and  _380
REMARK  160  A    between atoms: _380  and  _381
REMARK  161  A    between atoms: _380  and  _383
REMARK  162  A    between atoms: _383  and  _384
REMARK  163  A    between atoms: _386  and  _388
REMARK  164  A    between atoms: _388  and  _389
REMARK  165  A    between atoms: _388  and  _391
REMARK  166  A    between atoms: _391  and  _392
REMARK  167  A    between atoms: _395  and  _397
REMARK  168  A    between atoms: _397  and  _398
REMARK  169  A    between atoms: _397  and  _400
REMARK  170  A    between atoms: _400  and  _401
REMARK  171  A    between atoms: _401  and  _402
REMARK  172  A    between atoms: _405  and  _407
REMARK  173  A    between atoms: _407  and  _408
REMARK  174  A    between atoms: _407  and  _410
REMARK  175  A    between atoms: _410  and  _411
REMARK  176  A    between atoms: _416  and  _417
REMARK  177  A    between atoms: _419  and  _421
REMARK  178  A    between atoms: _421  and  _422
REMARK  179  A    between atoms: _421  and  _424
REMARK  180  A    between atoms: _424  and  _425
REMARK  181  A    between atoms: _428  and  _430
REMARK  182  A    between atoms: _430  and  _431
REMARK  183  A    between atoms: _430  and  _433
REMARK  184  A    between atoms: _433  and  _434
REMARK  185  A    between atoms: _437  and  _439
REMARK  186  A    between atoms: _439  and  _440
REMARK  187  A    between atoms: _439  and  _442
REMARK  188  A    between atoms: _442  and  _443
REMARK  189  A    between atoms: _443  and  _444
REMARK  190  A    between atoms: _444  and  _445
REMARK  191  A    between atoms: _454  and  _456
REMARK  192  A    between atoms: _456  and  _457
REMARK  193  A    between atoms: _456  and  _459
REMARK  194  A    between atoms: _462  and  _464
REMARK  195  A    between atoms: _464  and  _465
REMARK  196  A    between atoms: _464  and  _467
REMARK  197  A    between atoms: _467  and  _468
REMARK  198  A    between atoms: _471  and  _473
REMARK  199  A    between atoms: _473  and  _474
REMARK  200  A    between atoms: _473  and  _476
REMARK  201  A    between atoms: _476  and  _477
REMARK  202  A    between atoms: _487  and  _489
REMARK  203  A    between atoms: _489  and  _490
REMARK  204  A    between atoms: _489  and  _492
REMARK  205  A    between atoms: _492  and  _493
REMARK  206  A    between atoms: _493  and  _494
REMARK  207  A    between atoms: _494  and  _495
REMARK  208  A    between atoms: _495  and  _496
REMARK  209  A    between atoms: _500  and  _502
REMARK  210  A    between atoms: _502  and  _503
REMARK  211  A    between atoms: _502  and  _505
REMARK  212  A    between atoms: _505  and  _506
REMARK  213  A    between atoms: _509  and  _510
REMARK  214  A    between atoms: _516  and  _517
REMARK  215  A    between atoms: _522  and  _524
REMARK  216  A    between atoms: _524  and  _525
REMARK  217  A    between atoms: _524  and  _527
REMARK  218  A    between atoms: _527  and  _528
REMARK  219  A    between atoms: _528  and  _529
REMARK  220  A    between atoms: _529  and  _530
REMARK  221  A    between atoms: _539  and  _541
REMARK  222  A    between atoms: _541  and  _542
REMARK  223  A    between atoms: _541  and  _544
REMARK  224  A    between atoms: _544  and  _545
REMARK  225  A    between atoms: _548  and  _550
REMARK  226  A    between atoms: _550  and  _551
REMARK  227  A    between atoms: _550  and  _553
REMARK  228  A    between atoms: _553  and  _554
REMARK  229  A    between atoms: _556  and  _558
REMARK  230  A    between atoms: _558  and  _559
REMARK  231  A    between atoms: _558  and  _561
REMARK  232  A    between atoms: _561  and  _562
REMARK  233  A    between atoms: _562  and  _563
REMARK  234  A    between atoms: _563  and  _564
REMARK  235  A    between atoms: _564  and  _565
REMARK  236  A    between atoms: _569  and  _571
REMARK  237  A    between atoms: _571  and  _572
REMARK  238  A    between atoms: _571  and  _574
REMARK  239  A    between atoms: _574  and  _575
REMARK  240  A    between atoms: _578  and  _580
REMARK  241  A    between atoms: _580  and  _581
REMARK  242  A    between atoms: _583  and  _585
REMARK  243  A    between atoms: _585  and  _586
REMARK  244  A    between atoms: _585  and  _588
REMARK  245  A    between atoms: _588  and  _589
REMARK  246  A    between atoms: _591  and  _593
REMARK  247  A    between atoms: _593  and  _594
REMARK  248  A    between atoms: _596  and  _598
REMARK  249  A    between atoms: _598  and  _599
REMARK  250  A    between atoms: _598  and  _601
REMARK  251  A    between atoms: _601  and  _602
REMARK  252  A    between atoms: _607  and  _609
REMARK  253  A    between atoms: _609  and  _610
REMARK  254  A    between atoms: _609  and  _612
REMARK  255  A    between atoms: _612  and  _613
REMARK  256  A    between atoms: _616  and  _618
REMARK  257  A    between atoms: _618  and  _619
REMARK  258  A    between atoms: _618  and  _621
REMARK  259  A    between atoms: _621  and  _622
REMARK  260  A    between atoms: _628  and  _630
REMARK  261  A    between atoms: _630  and  _631
REMARK  262  A    between atoms: _630  and  _633
REMARK  263  A    between atoms: _633  and  _634
REMARK  264  A    between atoms: _634  and  _635
REMARK  265  A    between atoms: _638  and  _640
REMARK  266  A    between atoms: _640  and  _641
REMARK  267  A    between atoms: _640  and  _643
REMARK  268  A    between atoms: _643  and  _644
REMARK  269  A    between atoms: _644  and  _645
REMARK  270  A    between atoms: _645  and  _646
REMARK  271  A    between atoms: _655  and  _657
REMARK  272  A    between atoms: _657  and  _658
REMARK  273  A    between atoms: _657  and  _660
REMARK  274  A    between atoms: _660  and  _661
REMARK  275  A    between atoms: _661  and  _662
REMARK  276  A    between atoms: _662  and  _663
REMARK  277  A    between atoms: _672  and  _674
REMARK  278  A    between atoms: _674  and  _675
REMARK  279  A    between atoms: _674  and  _677
REMARK  280  A    between atoms: _677  and  _678
REMARK  281  A    between atoms: _683  and  _684
REMARK  282  A    between atoms: _686  and  _688
REMARK  283  A    between atoms: _688  and  _689
REMARK  284  A    between atoms: _688  and  _691
REMARK  285  A    between atoms: _691  and  _692
REMARK  286  A    between atoms: _695  and  _697
REMARK  287  A    between atoms: _697  and  _698
REMARK  288  A    between atoms: _697  and  _700
REMARK  289  A    between atoms: _700  and  _701
REMARK  290  A    between atoms: _701  and  _702
REMARK  291  A    between atoms: _702  and  _703
REMARK  292  A    between atoms: _703  and  _704
REMARK  293  A    between atoms: _708  and  _710
REMARK  294  A    between atoms: _710  and  _711
REMARK  295  A    between atoms: _710  and  _713
REMARK  296  A    between atoms: _713  and  _714
REMARK  297  A    between atoms: _719  and  _721
REMARK  298  A    between atoms: _721  and  _722
REMARK  299  A    between atoms: _721  and  _724
REMARK  300  A    between atoms: _724  and  _725
REMARK  301  A    between atoms: _735  and  _737
REMARK  302  A    between atoms: _737  and  _738
REMARK  303  A    between atoms: _737  and  _740
REMARK  304  A    between atoms: _740  and  _741
REMARK  305  A    between atoms: _741  and  _742
REMARK  306  A    between atoms: _745  and  _747
REMARK  307  A    between atoms: _747  and  _748
REMARK  308  A    between atoms: _747  and  _750
REMARK  309  A    between atoms: _750  and  _751
REMARK  310  A    between atoms: _754  and  _756
REMARK  311  A    between atoms: _756  and  _757
REMARK  312  A    between atoms: _756  and  _759
REMARK  313  A    between atoms: _759  and  _760
REMARK  314  A    between atoms: _765  and  _767
REMARK  315  A    between atoms: _767  and  _768
REMARK  316  A    between atoms: _767  and  _770
REMARK  317  A    between atoms: _770  and  _771
REMARK  318  A    between atoms: _777  and  _779
REMARK  319  A    between atoms: _779  and  _780
REMARK  320  A    between atoms: _779  and  _782
REMARK  321  A    between atoms: _782  and  _783
REMARK  322  A    between atoms: _785  and  _787
REMARK  323  A    between atoms: _787  and  _788
REMARK  324  A    between atoms: _790  and  _792
REMARK  325  A    between atoms: _792  and  _793
REMARK  326  A    between atoms: _792  and  _795
REMARK  327  A    between atoms: _795  and  _796
REMARK  328  A    between atoms: _801  and  _802
REMARK  329  A    between atoms: _804  and  _806
REMARK  330  A    between atoms: _806  and  _807
REMARK  331  A    between atoms: _806  and  _809
REMARK  332  A    between atoms: _809  and  _810
REMARK  333  A    between atoms: _815  and  _816
REMARK  334  A    between atoms: _818  and  _820
REMARK  335  A    between atoms: _820  and  _821
REMARK  336  A    between atoms: _820  and  _823
REMARK  337  A    between atoms: _823  and  _824
REMARK  338  A    between atoms: _828  and  ZN_938
REMARK  339  A    between atoms: _829  and  _831
REMARK  340  A    between atoms: _831  and  _832
REMARK  341  A    between atoms: _831  and  _834
REMARK  342  A    between atoms: _834  and  _835
REMARK  343  A    between atoms: _835  and  _836
REMARK  344  A    between atoms: _839  and  _841
REMARK  345  A    between atoms: _841  and  _842
REMARK  346  A    between atoms: _841  and  _844
REMARK  347  A    between atoms: _844  and  _845
REMARK  348  A    between atoms: _845  and  _846
REMARK  349  A    between atoms: _846  and  _847
REMARK  350  A    between atoms: _856  and  _858
REMARK  351  A    between atoms: _858  and  _859
REMARK  352  A    between atoms: _858  and  _861
REMARK  353  A    between atoms: _861  and  _862
REMARK  354  A    between atoms: _867  and  _868
REMARK  355  A    between atoms: _870  and  _872
REMARK  356  A    between atoms: _872  and  _873
REMARK  357  A    between atoms: _872  and  _875
REMARK  358  A    between atoms: _875  and  _876
REMARK  359  A    between atoms: _878  and  _880
REMARK  360  A    between atoms: _880  and  _881
REMARK  361  A    between atoms: _880  and  _883
REMARK  362  A    between atoms: _883  and  _884
REMARK  363  A    between atoms: _889  and  _891
REMARK  364  A    between atoms: _891  and  _892
REMARK  365  A    between atoms: _891  and  _894
REMARK  366  A    between atoms: _894  and  _895
REMARK  367  A    between atoms: _900  and  _902
REMARK  368  A    between atoms: _902  and  _903
REMARK  369  A    between atoms: _902  and  _905
REMARK  370  A    between atoms: _905  and  _906
REMARK  371  A    between atoms: _906  and  _907
REMARK  372  A    between atoms: _907  and  _908
REMARK  373  A    between atoms: _908  and  _909
REMARK  374  A    between atoms: _913  and  _915
REMARK  375  A    between atoms: _915  and  _916
REMARK  376  A    between atoms: _915  and  _918
REMARK  377  A    between atoms: _918  and  _919
REMARK  378  A    between atoms: _924  and  _925
REMARK  379  A    between atoms: _927  and  _929
REMARK  380  A    between atoms: _929  and  _930
REMARK  381  A    between atoms: _933  and  _935
REMARK  382  A    between atoms: _935  and  _936
REMARK                            x       y       z     vdW  Elec       q    Type
REMARK                         _______ _______ _______ _____ _____    ______ ____
ROOT
ATOM      1  O   HOH     1      14.955  52.550  34.846  0.00  0.00    +0.000 OA
ENDROOT
TORSDOF 0
REMARK  Name = ../refined-set-2016/2xeg/2xeg_pocket.pdb
REMARK  382 active torsions:
REMARK  status: ('A' for Active; 'I' for Inactive)
REMARK    1  A    between atoms: _1  and  _3
REMARK    2  A    between atoms: _3  and  _4
REMARK    3  A    between atoms: _7  and  _9
REMARK    4  A    between atoms: _9  and  _10
REMARK    5  A    between atoms: _9  and  _12
REMARK    6  A    between atoms: _12  and  _13
REMARK    7  A    between atoms: _19  and  _21
REMARK    8  A    between atoms: _21  and  _22
REMARK    9  A    between atoms: _21  and  _24
REMARK   10  A    between atoms: _24  and  _25
REMARK   11  A    between atoms: _30  and  _31
REMARK   12  A    between atoms: _33  and  _35
REMARK   13  A    between atoms: _35  and  _36
REMARK   14  A    between atoms: _38  and  _40
REMARK   15  A    between atoms: _40  and  _41
REMARK   16  A    between atoms: _40  and  _43
REMARK   17  A    between atoms: _43  and  _44
REMARK   18  A    between atoms: _44  and  _45
REMARK   19  A    between atoms: _45  and  _46
REMARK   20  A    between atoms: _46  and  _47
REMARK   21  A    between atoms: _51  and  _53
REMARK   22  A    between atoms: _53  and  _54
REMARK   23  A    between atoms: _53  and  _56
REMARK   24  A    between atoms: _59  and  _61
REMARK   25  A    between atoms: _61  and  _62
REMARK   26  A    between atoms: _61  and  _64
REMARK   27  A    between atoms: _64  and  _65
REMARK   28  A    between atoms: _71  and  _73
REMARK   29  A    between atoms: _73  and  _74
REMARK   30  A    between atoms: _73  and  _76
REMARK   31  A    between atoms: _76  and  _77
REMARK   32  A    between atoms: _77  and  _78
REMARK   33  A    between atoms: _78  and  _79
REMARK   34  A    between atoms: _88  and  _90
REMARK   35  A    between atoms: _90  and  _91
REMARK   36  A    between atoms: _93  and  _95
REMARK   37  A    between atoms: _95  and  _96
REMARK   38  A    between atoms: _95  and  _98
REMARK   39  A    between atoms: _98  and  _99
REMARK   40  A    between atoms: _99  and  _100
REMARK   41  A    between atoms: _100  and  _101
REMARK   42  A    between atoms: _101  and  _102
REMARK   43  A    between atoms: _106  and  _108
REMARK   44  A    between atoms: _108  and  _109
REMARK   45  A    between atoms: _108  and  _111
REMARK   46  A    between atoms: _111  and  _112
REMARK   47  A    between atoms: _115  and  _117
REMARK   48  A    between atoms: _117  and  _118
REMARK   49  A    between atoms: _117  and  _120
REMARK   50  A    between atoms: _120  and  _121
REMARK   51  A    between atoms: _126  and  _127
REMARK   52  A    between atoms: _129  and  _131
REMARK   53  A    between atoms: _131  and  _132
REMARK   54  A    between atoms: _131  and  _134
REMARK   55  A    between atoms: _134  and  _135
REMARK   56  A    between atoms: _135  and  _136
REMARK   57  A    between atoms: _141  and  _143
REMARK   58  A    between atoms: _143  and  _144
REMARK   59  A    between atoms: _143  and  _146
REMARK   60  A    between atoms: _146  and  _147
REMARK   61  A    between atoms: _147  and  _148
REMARK   62  A    between atoms: _148  and  _149
REMARK   63  A    between atoms: _158  and  _160
REMARK   64  A    between atoms: _160  and  _161
REMARK   65  A    between atoms: _163  and  _165
REMARK   66  A    between atoms: _165  and  _166
REMARK   67  A    between atoms: _165  and  _168
REMARK   68  A    between atoms: _168  and  _169
REMARK   69  A    between atoms: _174  and  _176
REMARK   70  A    between atoms: _176  and  _177
REMARK   71  A    between atoms: _176  and  _179
REMARK   72  A    between atoms: _179  and  _180
REMARK   73  A    between atoms: _183  and  _185
REMARK   74  A    between atoms: _185  and  _186
REMARK   75  A    between atoms: _185  and  _188
REMARK   76  A    between atoms: _188  and  _189
REMARK   77  A    between atoms: _192  and  _194
REMARK   78  A    between atoms: _194  and  _195
REMARK   79  A    between atoms: _194  and  _197
REMARK   80  A    between atoms: _197  and  _198
REMARK   81  A    between atoms: _203  and  _205
REMARK   82  A    between atoms: _205  and  _206
REMARK   83  A    between atoms: _205  and  _208
REMARK   84  A    between atoms: _208  and  _209
REMARK   85  A    between atoms: _212  and  _214
REMARK   86  A    between atoms: _214  and  _215
REMARK   87  A    between atoms: _214  and  _217
REMARK   88  A    between atoms: _217  and  _218
REMARK   89  A    between atoms: _223  and  _225
REMARK   90  A    between atoms: _225  and  _226
REMARK   91  A    between atoms: _228  and  _230
REMARK   92  A    between atoms: _230  and  _231
REMARK   93  A    between atoms: _230  and  _233
REMARK   94  A    between atoms: _233  and  _234
REMARK   95  A    between atoms: _238  and  ZN_939
REMARK   96  A    between atoms: _239  and  _241
REMARK   97  A    between atoms: _241  and  _242
REMARK   98  A    between atoms: _241  and  _244
REMARK   99  A    between atoms: _244  and  _245
REMARK  100  A    between atoms: _248  and  _250
REMARK  101  A    between atoms: _250  and  _251
REMARK  102  A    between atoms: _250  and  _253
REMARK  103  A    between atoms: _253  and  _254
REMARK  104  A    between atoms: _264  and  _266
REMARK  105  A    between atoms: _266  and  _267
REMARK  106  A    between atoms: _266  and  _269
REMARK  107  A    between atoms: _269  and  _270
REMARK  108  A    between atoms: _273  and  _275
REMARK  109  A    between atoms: _275  and  _276
REMARK  110  A    between atoms: _275  and  _278
REMARK  111  A    between atoms: _278  and  _279
REMARK  112  A    between atoms: _279  and  _280
REMARK  113  A    between atoms: _279  and  _281
REMARK  114  A    between atoms: _280  and  ZN_939
REMARK  115  A    between atoms: _281  and  ZN_938
REMARK  116  A    between atoms: _283  and  _284
REMARK  117  A    between atoms: _289  and  _291
REMARK  118  A    between atoms: _291  and  _292
REMARK  119  A    between atoms: _295  and  _297
REMARK  120  A    between atoms: _297  and  _298
REMARK  121  A    between atoms: _297  and  _300
REMARK  122  A    between atoms: _300  and  _301
REMARK  123  A    between atoms: _301  and  _302
REMARK  124  A    between atoms: _305  and  _307
REMARK  125  A    between atoms: _307  and  _308
REMARK  126  A    between atoms: _307  and  _310
REMARK  127  A    between atoms: _310  and  _311
REMARK  128  A    between atoms: _311  and  _312
REMARK  129  A    between atoms: _312  and  _314
REMARK  130  A    between atoms: _314  and  ZN_938
REMARK  131  A    between atoms: _315  and  _317
REMARK  132  A    between atoms: _317  and  _318
REMARK  133  A    between atoms: _317  and  _320
REMARK  134  A    between atoms: _320  and  _321
REMARK  135  A    between atoms: _327  and  _329
REMARK  136  A    between atoms: _329  and  _330
REMARK  137  A    between atoms: _332  and  _334
REMARK  138  A    between atoms: _334  and  _335
REMARK  139  A    between atoms: _334  and  _337
REMARK  140  A    between atoms: _337  and  _338
REMARK  141  A    between atoms: _341  and  _343
REMARK  142  A    between atoms: _343  and  _344
REMARK  143  A    between atoms: _343  and  _346
REMARK  144  A    between atoms: _346  and  _347
REMARK  145  A    between atoms: _350  and  _352
REMARK  146  A    between atoms: _352  and  _353
REMARK  147  A    between atoms: _352  and  _355
REMARK  148  A    between atoms: _355  and  _356
REMARK  149  A    between atoms: _361  and  _363
REMARK  150  A    between atoms: _363  and  _364
REMARK  151  A    between atoms: _363  and  _366
REMARK  152  A    between atoms: _366  and  _367
REMARK  153  A    between atoms: _367  and  _369
REMARK  154  A    between atoms: _369  and  ZN_939
REMARK  155  A    between atoms: _370  and  _372
REMARK  156  A    between atoms: _372  and  _373
REMARK  157  A    between atoms: _372  and  _375
REMARK  158  A    between atoms: _375  and  _376
REMARK  159  A    between atoms: _378  and  _380
REMARK  160  A    between atoms: _380  and  _381
REMARK  161  A    between atoms: _380  and  _383
REMARK  162  A    between atoms: _383  and  _384
REMARK  163  A    between atoms: _386  and  _388
REMARK  164  A    between atoms: _388  and  _389
REMARK  165  A    between atoms: _388  and  _391
REMARK  166  A    between atoms: _391  and  _392
REMARK  167  A    between atoms: _395  and  _397
REMARK  168  A    between atoms: _397  and  _398
REMARK  169  A    between atoms: _397  and  _400
REMARK  170  A    between atoms: _400  and  _401
REMARK  171  A    between atoms: _401  and  _402
REMARK  172  A    between atoms: _405  and  _407
REMARK  173  A    between atoms: _407  and  _408
REMARK  174  A    between atoms: _407  and  _410
REMARK  175  A    between atoms: _410  and  _411
REMARK  176  A    between atoms: _416  and  _417
REMARK  177  A    between atoms: _419  and  _421
REMARK  178  A    between atoms: _421  and  _422
REMARK  179  A    between atoms: _421  and  _424
REMARK  180  A    between atoms: _424  and  _425
REMARK  181  A    between atoms: _428  and  _430
REMARK  182  A    between atoms: _430  and  _431
REMARK  183  A    between atoms: _430  and  _433
REMARK  184  A    between atoms: _433  and  _434
REMARK  185  A    between atoms: _437  and  _439
REMARK  186  A    between atoms: _439  and  _440
REMARK  187  A    between atoms: _439  and  _442
REMARK  188  A    between atoms: _442  and  _443
REMARK  189  A    between atoms: _443  and  _444
REMARK  190  A    between atoms: _444  and  _445
REMARK  191  A    between atoms: _454  and  _456
REMARK  192  A    between atoms: _456  and  _457
REMARK  193  A    between atoms: _456  and  _459
REMARK  194  A    between atoms: _462  and  _464
REMARK  195  A    between atoms: _464  and  _465
REMARK  196  A    between atoms: _464  and  _467
REMARK  197  A    between atoms: _467  and  _468
REMARK  198  A    between atoms: _471  and  _473
REMARK  199  A    between atoms: _473  and  _474
REMARK  200  A    between atoms: _473  and  _476
REMARK  201  A    between atoms: _476  and  _477
REMARK  202  A    between atoms: _487  and  _489
REMARK  203  A    between atoms: _489  and  _490
REMARK  204  A    between atoms: _489  and  _492
REMARK  205  A    between atoms: _492  and  _493
REMARK  206  A    between atoms: _493  and  _494
REMARK  207  A    between atoms: _494  and  _495
REMARK  208  A    between atoms: _495  and  _496
REMARK  209  A    between atoms: _500  and  _502
REMARK  210  A    between atoms: _502  and  _503
REMARK  211  A    between atoms: _502  and  _505
REMARK  212  A    between atoms: _505  and  _506
REMARK  213  A    between atoms: _509  and  _510
REMARK  214  A    between atoms: _516  and  _517
REMARK  215  A    between atoms: _522  and  _524
REMARK  216  A    between atoms: _524  and  _525
REMARK  217  A    between atoms: _524  and  _527
REMARK  218  A    between atoms: _527  and  _528
REMARK  219  A    between atoms: _528  and  _529
REMARK  220  A    between atoms: _529  and  _530
REMARK  221  A    between atoms: _539  and  _541
REMARK  222  A    between atoms: _541  and  _542
REMARK  223  A    between atoms: _541  and  _544
REMARK  224  A    between atoms: _544  and  _545
REMARK  225  A    between atoms: _548  and  _550
REMARK  226  A    between atoms: _550  and  _551
REMARK  227  A    between atoms: _550  and  _553
REMARK  228  A    between atoms: _553  and  _554
REMARK  229  A    between atoms: _556  and  _558
REMARK  230  A    between atoms: _558  and  _559
REMARK  231  A    between atoms: _558  and  _561
REMARK  232  A    between atoms: _561  and  _562
REMARK  233  A    between atoms: _562  and  _563
REMARK  234  A    between atoms: _563  and  _564
REMARK  235  A    between atoms: _564  and  _565
REMARK  236  A    between atoms: _569  and  _571
REMARK  237  A    between atoms: _571  and  _572
REMARK  238  A    between atoms: _571  and  _574
REMARK  239  A    between atoms: _574  and  _575
REMARK  240  A    between atoms: _578  and  _580
REMARK  241  A    between atoms: _580  and  _581
REMARK  242  A    between atoms: _583  and  _585
REMARK  243  A    between atoms: _585  and  _586
REMARK  244  A    between atoms: _585  and  _588
REMARK  245  A    between atoms: _588  and  _589
REMARK  246  A    between atoms: _591  and  _593
REMARK  247  A    between atoms: _593  and  _594
REMARK  248  A    between atoms: _596  and  _598
REMARK  249  A    between atoms: _598  and  _599
REMARK  250  A    between atoms: _598  and  _601
REMARK  251  A    between atoms: _601  and  _602
REMARK  252  A    between atoms: _607  and  _609
REMARK  253  A    between atoms: _609  and  _610
REMARK  254  A    between atoms: _609  and  _612
REMARK  255  A    between atoms: _612  and  _613
REMARK  256  A    between atoms: _616  and  _618
REMARK  257  A    between atoms: _618  and  _619
REMARK  258  A    between atoms: _618  and  _621
REMARK  259  A    between atoms: _621  and  _622
REMARK  260  A    between atoms: _628  and  _630
REMARK  261  A    between atoms: _630  and  _631
REMARK  262  A    between atoms: _630  and  _633
REMARK  263  A    between atoms: _633  and  _634
REMARK  264  A    between atoms: _634  and  _635
REMARK  265  A    between atoms: _638  and  _640
REMARK  266  A    between atoms: _640  and  _641
REMARK  267  A    between atoms: _640  and  _643
REMARK  268  A    between atoms: _643  and  _644
REMARK  269  A    between atoms: _644  and  _645
REMARK  270  A    between atoms: _645  and  _646
REMARK  271  A    between atoms: _655  and  _657
REMARK  272  A    between atoms: _657  and  _658
REMARK  273  A    between atoms: _657  and  _660
REMARK  274  A    between atoms: _660  and  _661
REMARK  275  A    between atoms: _661  and  _662
REMARK  276  A    between atoms: _662  and  _663
REMARK  277  A    between atoms: _672  and  _674
REMARK  278  A    between atoms: _674  and  _675
REMARK  279  A    between atoms: _674  and  _677
REMARK  280  A    between atoms: _677  and  _678
REMARK  281  A    between atoms: _683  and  _684
REMARK  282  A    between atoms: _686  and  _688
REMARK  283  A    between atoms: _688  and  _689
REMARK  284  A    between atoms: _688  and  _691
REMARK  285  A    between atoms: _691  and  _692
REMARK  286  A    between atoms: _695  and  _697
REMARK  287  A    between atoms: _697  and  _698
REMARK  288  A    between atoms: _697  and  _700
REMARK  289  A    between atoms: _700  and  _701
REMARK  290  A    between atoms: _701  and  _702
REMARK  291  A    between atoms: _702  and  _703
REMARK  292  A    between atoms: _703  and  _704
REMARK  293  A    between atoms: _708  and  _710
REMARK  294  A    between atoms: _710  and  _711
REMARK  295  A    between atoms: _710  and  _713
REMARK  296  A    between atoms: _713  and  _714
REMARK  297  A    between atoms: _719  and  _721
REMARK  298  A    between atoms: _721  and  _722
REMARK  299  A    between atoms: _721  and  _724
REMARK  300  A    between atoms: _724  and  _725
REMARK  301  A    between atoms: _735  and  _737
REMARK  302  A    between atoms: _737  and  _738
REMARK  303  A    between atoms: _737  and  _740
REMARK  304  A    between atoms: _740  and  _741
REMARK  305  A    between atoms: _741  and  _742
REMARK  306  A    between atoms: _745  and  _747
REMARK  307  A    between atoms: _747  and  _748
REMARK  308  A    between atoms: _747  and  _750
REMARK  309  A    between atoms: _750  and  _751
REMARK  310  A    between atoms: _754  and  _756
REMARK  311  A    between atoms: _756  and  _757
REMARK  312  A    between atoms: _756  and  _759
REMARK  313  A    between atoms: _759  and  _760
REMARK  314  A    between atoms: _765  and  _767
REMARK  315  A    between atoms: _767  and  _768
REMARK  316  A    between atoms: _767  and  _770
REMARK  317  A    between atoms: _770  and  _771
REMARK  318  A    between atoms: _777  and  _779
REMARK  319  A    between atoms: _779  and  _780
REMARK  320  A    between atoms: _779  and  _782
REMARK  321  A    between atoms: _782  and  _783
REMARK  322  A    between atoms: _785  and  _787
REMARK  323  A    between atoms: _787  and  _788
REMARK  324  A    between atoms: _790  and  _792
REMARK  325  A    between atoms: _792  and  _793
REMARK  326  A    between atoms: _792  and  _795
REMARK  327  A    between atoms: _795  and  _796
REMARK  328  A    between atoms: _801  and  _802
REMARK  329  A    between atoms: _804  and  _806
REMARK  330  A    between atoms: _806  and  _807
REMARK  331  A    between atoms: _806  and  _809
REMARK  332  A    between atoms: _809  and  _810
REMARK  333  A    between atoms: _815  and  _816
REMARK  334  A    between atoms: _818  and  _820
REMARK  335  A    between atoms: _820  and  _821
REMARK  336  A    between atoms: _820  and  _823
REMARK  337  A    between atoms: _823  and  _824
REMARK  338  A    between atoms: _828  and  ZN_938
REMARK  339  A    between atoms: _829  and  _831
REMARK  340  A    between atoms: _831  and  _832
REMARK  341  A    between atoms: _831  and  _834
REMARK  342  A    between atoms: _834  and  _835
REMARK  343  A    between atoms: _835  and  _836
REMARK  344  A    between atoms: _839  and  _841
REMARK  345  A    between atoms: _841  and  _842
REMARK  346  A    between atoms: _841  and  _844
REMARK  347  A    between atoms: _844  and  _845
REMARK  348  A    between atoms: _845  and  _846
REMARK  349  A    between atoms: _846  and  _847
REMARK  350  A    between atoms: _856  and  _858
REMARK  351  A    between atoms: _858  and  _859
REMARK  352  A    between atoms: _858  and  _861
REMARK  353  A    between atoms: _861  and  _862
REMARK  354  A    between atoms: _867  and  _868
REMARK  355  A    between atoms: _870  and  _872
REMARK  356  A    between atoms: _872  and  _873
REMARK  357  A    between atoms: _872  and  _875
REMARK  358  A    between atoms: _875  and  _876
REMARK  359  A    between atoms: _878  and  _880
REMARK  360  A    between atoms: _880  and  _881
REMARK  361  A    between atoms: _880  and  _883
REMARK  362  A    between atoms: _883  and  _884
REMARK  363  A    between atoms: _889  and  _891
REMARK  364  A    between atoms: _891  and  _892
REMARK  365  A    between atoms: _891  and  _894
REMARK  366  A    between atoms: _894  and  _895
REMARK  367  A    between atoms: _900  and  _902
REMARK  368  A    between atoms: _902  and  _903
REMARK  369  A    between atoms: _902  and  _905
REMARK  370  A    between atoms: _905  and  _906
REMARK  371  A    between atoms: _906  and  _907
REMARK  372  A    between atoms: _907  and  _908
REMARK  373  A    between atoms: _908  and  _909
REMARK  374  A    between atoms: _913  and  _915
REMARK  375  A    between atoms: _915  and  _916
REMARK  376  A    between atoms: _915  and  _918
REMARK  377  A    between atoms: _918  and  _919
REMARK  378  A    between atoms: _924  and  _925
REMARK  379  A    between atoms: _927  and  _929
REMARK  380  A    between atoms: _929  and  _930
REMARK  381  A    between atoms: _933  and  _935
REMARK  382  A    between atoms: _935  and  _936
REMARK                            x       y       z     vdW  Elec       q    Type
REMARK                         _______ _______ _______ _____ _____    ______ ____
ROOT
ATOM      1  O   HOH     1      12.589  53.362  35.990  0.00  0.00    +0.000 OA
ENDROOT
TORSDOF 0
REMARK  Name = ../refined-set-2016/2xeg/2xeg_pocket.pdb
REMARK  382 active torsions:
REMARK  status: ('A' for Active; 'I' for Inactive)
REMARK    1  A    between atoms: _1  and  _3
REMARK    2  A    between atoms: _3  and  _4
REMARK    3  A    between atoms: _7  and  _9
REMARK    4  A    between atoms: _9  and  _10
REMARK    5  A    between atoms: _9  and  _12
REMARK    6  A    between atoms: _12  and  _13
REMARK    7  A    between atoms: _19  and  _21
REMARK    8  A    between atoms: _21  and  _22
REMARK    9  A    between atoms: _21  and  _24
REMARK   10  A    between atoms: _24  and  _25
REMARK   11  A    between atoms: _30  and  _31
REMARK   12  A    between atoms: _33  and  _35
REMARK   13  A    between atoms: _35  and  _36
REMARK   14  A    between atoms: _38  and  _40
REMARK   15  A    between atoms: _40  and  _41
REMARK   16  A    between atoms: _40  and  _43
REMARK   17  A    between atoms: _43  and  _44
REMARK   18  A    between atoms: _44  and  _45
REMARK   19  A    between atoms: _45  and  _46
REMARK   20  A    between atoms: _46  and  _47
REMARK   21  A    between atoms: _51  and  _53
REMARK   22  A    between atoms: _53  and  _54
REMARK   23  A    between atoms: _53  and  _56
REMARK   24  A    between atoms: _59  and  _61
REMARK   25  A    between atoms: _61  and  _62
REMARK   26  A    between atoms: _61  and  _64
REMARK   27  A    between atoms: _64  and  _65
REMARK   28  A    between atoms: _71  and  _73
REMARK   29  A    between atoms: _73  and  _74
REMARK   30  A    between atoms: _73  and  _76
REMARK   31  A    between atoms: _76  and  _77
REMARK   32  A    between atoms: _77  and  _78
REMARK   33  A    between atoms: _78  and  _79
REMARK   34  A    between atoms: _88  and  _90
REMARK   35  A    between atoms: _90  and  _91
REMARK   36  A    between atoms: _93  and  _95
REMARK   37  A    between atoms: _95  and  _96
REMARK   38  A    between atoms: _95  and  _98
REMARK   39  A    between atoms: _98  and  _99
REMARK   40  A    between atoms: _99  and  _100
REMARK   41  A    between atoms: _100  and  _101
REMARK   42  A    between atoms: _101  and  _102
REMARK   43  A    between atoms: _106  and  _108
REMARK   44  A    between atoms: _108  and  _109
REMARK   45  A    between atoms: _108  and  _111
REMARK   46  A    between atoms: _111  and  _112
REMARK   47  A    between atoms: _115  and  _117
REMARK   48  A    between atoms: _117  and  _118
REMARK   49  A    between atoms: _117  and  _120
REMARK   50  A    between atoms: _120  and  _121
REMARK   51  A    between atoms: _126  and  _127
REMARK   52  A    between atoms: _129  and  _131
REMARK   53  A    between atoms: _131  and  _132
REMARK   54  A    between atoms: _131  and  _134
REMARK   55  A    between atoms: _134  and  _135
REMARK   56  A    between atoms: _135  and  _136
REMARK   57  A    between atoms: _141  and  _143
REMARK   58  A    between atoms: _143  and  _144
REMARK   59  A    between atoms: _143  and  _146
REMARK   60  A    between atoms: _146  and  _147
REMARK   61  A    between atoms: _147  and  _148
REMARK   62  A    between atoms: _148  and  _149
REMARK   63  A    between atoms: _158  and  _160
REMARK   64  A    between atoms: _160  and  _161
REMARK   65  A    between atoms: _163  and  _165
REMARK   66  A    between atoms: _165  and  _166
REMARK   67  A    between atoms: _165  and  _168
REMARK   68  A    between atoms: _168  and  _169
REMARK   69  A    between atoms: _174  and  _176
REMARK   70  A    between atoms: _176  and  _177
REMARK   71  A    between atoms: _176  and  _179
REMARK   72  A    between atoms: _179  and  _180
REMARK   73  A    between atoms: _183  and  _185
REMARK   74  A    between atoms: _185  and  _186
REMARK   75  A    between atoms: _185  and  _188
REMARK   76  A    between atoms: _188  and  _189
REMARK   77  A    between atoms: _192  and  _194
REMARK   78  A    between atoms: _194  and  _195
REMARK   79  A    between atoms: _194  and  _197
REMARK   80  A    between atoms: _197  and  _198
REMARK   81  A    between atoms: _203  and  _205
REMARK   82  A    between atoms: _205  and  _206
REMARK   83  A    between atoms: _205  and  _208
REMARK   84  A    between atoms: _208  and  _209
REMARK   85  A    between atoms: _212  and  _214
REMARK   86  A    between atoms: _214  and  _215
REMARK   87  A    between atoms: _214  and  _217
REMARK   88  A    between atoms: _217  and  _218
REMARK   89  A    between atoms: _223  and  _225
REMARK   90  A    between atoms: _225  and  _226
REMARK   91  A    between atoms: _228  and  _230
REMARK   92  A    between atoms: _230  and  _231
REMARK   93  A    between atoms: _230  and  _233
REMARK   94  A    between atoms: _233  and  _234
REMARK   95  A    between atoms: _238  and  ZN_939
REMARK   96  A    between atoms: _239  and  _241
REMARK   97  A    between atoms: _241  and  _242
REMARK   98  A    between atoms: _241  and  _244
REMARK   99  A    between atoms: _244  and  _245
REMARK  100  A    between atoms: _248  and  _250
REMARK  101  A    between atoms: _250  and  _251
REMARK  102  A    between atoms: _250  and  _253
REMARK  103  A    between atoms: _253  and  _254
REMARK  104  A    between atoms: _264  and  _266
REMARK  105  A    between atoms: _266  and  _267
REMARK  106  A    between atoms: _266  and  _269
REMARK  107  A    between atoms: _269  and  _270
REMARK  108  A    between atoms: _273  and  _275
REMARK  109  A    between atoms: _275  and  _276
REMARK  110  A    between atoms: _275  and  _278
REMARK  111  A    between atoms: _278  and  _279
REMARK  112  A    between atoms: _279  and  _280
REMARK  113  A    between atoms: _279  and  _281
REMARK  114  A    between atoms: _280  and  ZN_939
REMARK  115  A    between atoms: _281  and  ZN_938
REMARK  116  A    between atoms: _283  and  _284
REMARK  117  A    between atoms: _289  and  _291
REMARK  118  A    between atoms: _291  and  _292
REMARK  119  A    between atoms: _295  and  _297
REMARK  120  A    between atoms: _297  and  _298
REMARK  121  A    between atoms: _297  and  _300
REMARK  122  A    between atoms: _300  and  _301
REMARK  123  A    between atoms: _301  and  _302
REMARK  124  A    between atoms: _305  and  _307
REMARK  125  A    between atoms: _307  and  _308
REMARK  126  A    between atoms: _307  and  _310
REMARK  127  A    between atoms: _310  and  _311
REMARK  128  A    between atoms: _311  and  _312
REMARK  129  A    between atoms: _312  and  _314
REMARK  130  A    between atoms: _314  and  ZN_938
REMARK  131  A    between atoms: _315  and  _317
REMARK  132  A    between atoms: _317  and  _318
REMARK  133  A    between atoms: _317  and  _320
REMARK  134  A    between atoms: _320  and  _321
REMARK  135  A    between atoms: _327  and  _329
REMARK  136  A    between atoms: _329  and  _330
REMARK  137  A    between atoms: _332  and  _334
REMARK  138  A    between atoms: _334  and  _335
REMARK  139  A    between atoms: _334  and  _337
REMARK  140  A    between atoms: _337  and  _338
REMARK  141  A    between atoms: _341  and  _343
REMARK  142  A    between atoms: _343  and  _344
REMARK  143  A    between atoms: _343  and  _346
REMARK  144  A    between atoms: _346  and  _347
REMARK  145  A    between atoms: _350  and  _352
REMARK  146  A    between atoms: _352  and  _353
REMARK  147  A    between atoms: _352  and  _355
REMARK  148  A    between atoms: _355  and  _356
REMARK  149  A    between atoms: _361  and  _363
REMARK  150  A    between atoms: _363  and  _364
REMARK  151  A    between atoms: _363  and  _366
REMARK  152  A    between atoms: _366  and  _367
REMARK  153  A    between atoms: _367  and  _369
REMARK  154  A    between atoms: _369  and  ZN_939
REMARK  155  A    between atoms: _370  and  _372
REMARK  156  A    between atoms: _372  and  _373
REMARK  157  A    between atoms: _372  and  _375
REMARK  158  A    between atoms: _375  and  _376
REMARK  159  A    between atoms: _378  and  _380
REMARK  160  A    between atoms: _380  and  _381
REMARK  161  A    between atoms: _380  and  _383
REMARK  162  A    between atoms: _383  and  _384
REMARK  163  A    between atoms: _386  and  _388
REMARK  164  A    between atoms: _388  and  _389
REMARK  165  A    between atoms: _388  and  _391
REMARK  166  A    between atoms: _391  and  _392
REMARK  167  A    between atoms: _395  and  _397
REMARK  168  A    between atoms: _397  and  _398
REMARK  169  A    between atoms: _397  and  _400
REMARK  170  A    between atoms: _400  and  _401
REMARK  171  A    between atoms: _401  and  _402
REMARK  172  A    between atoms: _405  and  _407
REMARK  173  A    between atoms: _407  and  _408
REMARK  174  A    between atoms: _407  and  _410
REMARK  175  A    between atoms: _410  and  _411
REMARK  176  A    between atoms: _416  and  _417
REMARK  177  A    between atoms: _419  and  _421
REMARK  178  A    between atoms: _421  and  _422
REMARK  179  A    between atoms: _421  and  _424
REMARK  180  A    between atoms: _424  and  _425
REMARK  181  A    between atoms: _428  and  _430
REMARK  182  A    between atoms: _430  and  _431
REMARK  183  A    between atoms: _430  and  _433
REMARK  184  A    between atoms: _433  and  _434
REMARK  185  A    between atoms: _437  and  _439
REMARK  186  A    between atoms: _439  and  _440
REMARK  187  A    between atoms: _439  and  _442
REMARK  188  A    between atoms: _442  and  _443
REMARK  189  A    between atoms: _443  and  _444
REMARK  190  A    between atoms: _444  and  _445
REMARK  191  A    between atoms: _454  and  _456
REMARK  192  A    between atoms: _456  and  _457
REMARK  193  A    between atoms: _456  and  _459
REMARK  194  A    between atoms: _462  and  _464
REMARK  195  A    between atoms: _464  and  _465
REMARK  196  A    between atoms: _464  and  _467
REMARK  197  A    between atoms: _467  and  _468
REMARK  198  A    between atoms: _471  and  _473
REMARK  199  A    between atoms: _473  and  _474
REMARK  200  A    between atoms: _473  and  _476
REMARK  201  A    between atoms: _476  and  _477
REMARK  202  A    between atoms: _487  and  _489
REMARK  203  A    between atoms: _489  and  _490
REMARK  204  A    between atoms: _489  and  _492
REMARK  205  A    between atoms: _492  and  _493
REMARK  206  A    between atoms: _493  and  _494
REMARK  207  A    between atoms: _494  and  _495
REMARK  208  A    between atoms: _495  and  _496
REMARK  209  A    between atoms: _500  and  _502
REMARK  210  A    between atoms: _502  and  _503
REMARK  211  A    between atoms: _502  and  _505
REMARK  212  A    between atoms: _505  and  _506
REMARK  213  A    between atoms: _509  and  _510
REMARK  214  A    between atoms: _516  and  _517
REMARK  215  A    between atoms: _522  and  _524
REMARK  216  A    between atoms: _524  and  _525
REMARK  217  A    between atoms: _524  and  _527
REMARK  218  A    between atoms: _527  and  _528
REMARK  219  A    between atoms: _528  and  _529
REMARK  220  A    between atoms: _529  and  _530
REMARK  221  A    between atoms: _539  and  _541
REMARK  222  A    between atoms: _541  and  _542
REMARK  223  A    between atoms: _541  and  _544
REMARK  224  A    between atoms: _544  and  _545
REMARK  225  A    between atoms: _548  and  _550
REMARK  226  A    between atoms: _550  and  _551
REMARK  227  A    between atoms: _550  and  _553
REMARK  228  A    between atoms: _553  and  _554
REMARK  229  A    between atoms: _556  and  _558
REMARK  230  A    between atoms: _558  and  _559
REMARK  231  A    between atoms: _558  and  _561
REMARK  232  A    between atoms: _561  and  _562
REMARK  233  A    between atoms: _562  and  _563
REMARK  234  A    between atoms: _563  and  _564
REMARK  235  A    between atoms: _564  and  _565
REMARK  236  A    between atoms: _569  and  _571
REMARK  237  A    between atoms: _571  and  _572
REMARK  238  A    between atoms: _571  and  _574
REMARK  239  A    between atoms: _574  and  _575
REMARK  240  A    between atoms: _578  and  _580
REMARK  241  A    between atoms: _580  and  _581
REMARK  242  A    between atoms: _583  and  _585
REMARK  243  A    between atoms: _585  and  _586
REMARK  244  A    between atoms: _585  and  _588
REMARK  245  A    between atoms: _588  and  _589
REMARK  246  A    between atoms: _591  and  _593
REMARK  247  A    between atoms: _593  and  _594
REMARK  248  A    between atoms: _596  and  _598
REMARK  249  A    between atoms: _598  and  _599
REMARK  250  A    between atoms: _598  and  _601
REMARK  251  A    between atoms: _601  and  _602
REMARK  252  A    between atoms: _607  and  _609
REMARK  253  A    between atoms: _609  and  _610
REMARK  254  A    between atoms: _609  and  _612
REMARK  255  A    between atoms: _612  and  _613
REMARK  256  A    between atoms: _616  and  _618
REMARK  257  A    between atoms: _618  and  _619
REMARK  258  A    between atoms: _618  and  _621
REMARK  259  A    between atoms: _621  and  _622
REMARK  260  A    between atoms: _628  and  _630
REMARK  261  A    between atoms: _630  and  _631
REMARK  262  A    between atoms: _630  and  _633
REMARK  263  A    between atoms: _633  and  _634
REMARK  264  A    between atoms: _634  and  _635
REMARK  265  A    between atoms: _638  and  _640
REMARK  266  A    between atoms: _640  and  _641
REMARK  267  A    between atoms: _640  and  _643
REMARK  268  A    between atoms: _643  and  _644
REMARK  269  A    between atoms: _644  and  _645
REMARK  270  A    between atoms: _645  and  _646
REMARK  271  A    between atoms: _655  and  _657
REMARK  272  A    between atoms: _657  and  _658
REMARK  273  A    between atoms: _657  and  _660
REMARK  274  A    between atoms: _660  and  _661
REMARK  275  A    between atoms: _661  and  _662
REMARK  276  A    between atoms: _662  and  _663
REMARK  277  A    between atoms: _672  and  _674
REMARK  278  A    between atoms: _674  and  _675
REMARK  279  A    between atoms: _674  and  _677
REMARK  280  A    between atoms: _677  and  _678
REMARK  281  A    between atoms: _683  and  _684
REMARK  282  A    between atoms: _686  and  _688
REMARK  283  A    between atoms: _688  and  _689
REMARK  284  A    between atoms: _688  and  _691
REMARK  285  A    between atoms: _691  and  _692
REMARK  286  A    between atoms: _695  and  _697
REMARK  287  A    between atoms: _697  and  _698
REMARK  288  A    between atoms: _697  and  _700
REMARK  289  A    between atoms: _700  and  _701
REMARK  290  A    between atoms: _701  and  _702
REMARK  291  A    between atoms: _702  and  _703
REMARK  292  A    between atoms: _703  and  _704
REMARK  293  A    between atoms: _708  and  _710
REMARK  294  A    between atoms: _710  and  _711
REMARK  295  A    between atoms: _710  and  _713
REMARK  296  A    between atoms: _713  and  _714
REMARK  297  A    between atoms: _719  and  _721
REMARK  298  A    between atoms: _721  and  _722
REMARK  299  A    between atoms: _721  and  _724
REMARK  300  A    between atoms: _724  and  _725
REMARK  301  A    between atoms: _735  and  _737
REMARK  302  A    between atoms: _737  and  _738
REMARK  303  A    between atoms: _737  and  _740
REMARK  304  A    between atoms: _740  and  _741
REMARK  305  A    between atoms: _741  and  _742
REMARK  306  A    between atoms: _745  and  _747
REMARK  307  A    between atoms: _747  and  _748
REMARK  308  A    between atoms: _747  and  _750
REMARK  309  A    between atoms: _750  and  _751
REMARK  310  A    between atoms: _754  and  _756
REMARK  311  A    between atoms: _756  and  _757
REMARK  312  A    between atoms: _756  and  _759
REMARK  313  A    between atoms: _759  and  _760
REMARK  314  A    between atoms: _765  and  _767
REMARK  315  A    between atoms: _767  and  _768
REMARK  316  A    between atoms: _767  and  _770
REMARK  317  A    between atoms: _770  and  _771
REMARK  318  A    between atoms: _777  and  _779
REMARK  319  A    between atoms: _779  and  _780
REMARK  320  A    between atoms: _779  and  _782
REMARK  321  A    between atoms: _782  and  _783
REMARK  322  A    between atoms: _785  and  _787
REMARK  323  A    between atoms: _787  and  _788
REMARK  324  A    between atoms: _790  and  _792
REMARK  325  A    between atoms: _792  and  _793
REMARK  326  A    between atoms: _792  and  _795
REMARK  327  A    between atoms: _795  and  _796
REMARK  328  A    between atoms: _801  and  _802
REMARK  329  A    between atoms: _804  and  _806
REMARK  330  A    between atoms: _806  and  _807
REMARK  331  A    between atoms: _806  and  _809
REMARK  332  A    between atoms: _809  and  _810
REMARK  333  A    between atoms: _815  and  _816
REMARK  334  A    between atoms: _818  and  _820
REMARK  335  A    between atoms: _820  and  _821
REMARK  336  A    between atoms: _820  and  _823
REMARK  337  A    between atoms: _823  and  _824
REMARK  338  A    between atoms: _828  and  ZN_938
REMARK  339  A    between atoms: _829  and  _831
REMARK  340  A    between atoms: _831  and  _832
REMARK  341  A    between atoms: _831  and  _834
REMARK  342  A    between atoms: _834  and  _835
REMARK  343  A    between atoms: _835  and  _836
REMARK  344  A    between atoms: _839  and  _841
REMARK  345  A    between atoms: _841  and  _842
REMARK  346  A    between atoms: _841  and  _844
REMARK  347  A    between atoms: _844  and  _845
REMARK  348  A    between atoms: _845  and  _846
REMARK  349  A    between atoms: _846  and  _847
REMARK  350  A    between atoms: _856  and  _858
REMARK  351  A    between atoms: _858  and  _859
REMARK  352  A    between atoms: _858  and  _861
REMARK  353  A    between atoms: _861  and  _862
REMARK  354  A    between atoms: _867  and  _868
REMARK  355  A    between atoms: _870  and  _872
REMARK  356  A    between atoms: _872  and  _873
REMARK  357  A    between atoms: _872  and  _875
REMARK  358  A    between atoms: _875  and  _876
REMARK  359  A    between atoms: _878  and  _880
REMARK  360  A    between atoms: _880  and  _881
REMARK  361  A    between atoms: _880  and  _883
REMARK  362  A    between atoms: _883  and  _884
REMARK  363  A    between atoms: _889  and  _891
REMARK  364  A    between atoms: _891  and  _892
REMARK  365  A    between atoms: _891  and  _894
REMARK  366  A    between atoms: _894  and  _895
REMARK  367  A    between atoms: _900  and  _902
REMARK  368  A    between atoms: _902  and  _903
REMARK  369  A    between atoms: _902  and  _905
REMARK  370  A    between atoms: _905  and  _906
REMARK  371  A    between atoms: _906  and  _907
REMARK  372  A    between atoms: _907  and  _908
REMARK  373  A    between atoms: _908  and  _909
REMARK  374  A    between atoms: _913  and  _915
REMARK  375  A    between atoms: _915  and  _916
REMARK  376  A    between atoms: _915  and  _918
REMARK  377  A    between atoms: _918  and  _919
REMARK  378  A    between atoms: _924  and  _925
REMARK  379  A    between atoms: _927  and  _929
REMARK  380  A    between atoms: _929  and  _930
REMARK  381  A    between atoms: _933  and  _935
REMARK  382  A    between atoms: _935  and  _936
REMARK                            x       y       z     vdW  Elec       q    Type
REMARK                         _______ _______ _______ _____ _____    ______ ____
ROOT
ATOM      1  O   HOH     1      16.758  37.055  44.027  0.00  0.00    +0.000 OA
ENDROOT
TORSDOF 0
REMARK  Name = ../refined-set-2016/2xeg/2xeg_pocket.pdb
REMARK  382 active torsions:
REMARK  status: ('A' for Active; 'I' for Inactive)
REMARK    1  A    between atoms: _1  and  _3
REMARK    2  A    between atoms: _3  and  _4
REMARK    3  A    between atoms: _7  and  _9
REMARK    4  A    between atoms: _9  and  _10
REMARK    5  A    between atoms: _9  and  _12
REMARK    6  A    between atoms: _12  and  _13
REMARK    7  A    between atoms: _19  and  _21
REMARK    8  A    between atoms: _21  and  _22
REMARK    9  A    between atoms: _21  and  _24
REMARK   10  A    between atoms: _24  and  _25
REMARK   11  A    between atoms: _30  and  _31
REMARK   12  A    between atoms: _33  and  _35
REMARK   13  A    between atoms: _35  and  _36
REMARK   14  A    between atoms: _38  and  _40
REMARK   15  A    between atoms: _40  and  _41
REMARK   16  A    between atoms: _40  and  _43
REMARK   17  A    between atoms: _43  and  _44
REMARK   18  A    between atoms: _44  and  _45
REMARK   19  A    between atoms: _45  and  _46
REMARK   20  A    between atoms: _46  and  _47
REMARK   21  A    between atoms: _51  and  _53
REMARK   22  A    between atoms: _53  and  _54
REMARK   23  A    between atoms: _53  and  _56
REMARK   24  A    between atoms: _59  and  _61
REMARK   25  A    between atoms: _61  and  _62
REMARK   26  A    between atoms: _61  and  _64
REMARK   27  A    between atoms: _64  and  _65
REMARK   28  A    between atoms: _71  and  _73
REMARK   29  A    between atoms: _73  and  _74
REMARK   30  A    between atoms: _73  and  _76
REMARK   31  A    between atoms: _76  and  _77
REMARK   32  A    between atoms: _77  and  _78
REMARK   33  A    between atoms: _78  and  _79
REMARK   34  A    between atoms: _88  and  _90
REMARK   35  A    between atoms: _90  and  _91
REMARK   36  A    between atoms: _93  and  _95
REMARK   37  A    between atoms: _95  and  _96
REMARK   38  A    between atoms: _95  and  _98
REMARK   39  A    between atoms: _98  and  _99
REMARK   40  A    between atoms: _99  and  _100
REMARK   41  A    between atoms: _100  and  _101
REMARK   42  A    between atoms: _101  and  _102
REMARK   43  A    between atoms: _106  and  _108
REMARK   44  A    between atoms: _108  and  _109
REMARK   45  A    between atoms: _108  and  _111
REMARK   46  A    between atoms: _111  and  _112
REMARK   47  A    between atoms: _115  and  _117
REMARK   48  A    between atoms: _117  and  _118
REMARK   49  A    between atoms: _117  and  _120
REMARK   50  A    between atoms: _120  and  _121
REMARK   51  A    between atoms: _126  and  _127
REMARK   52  A    between atoms: _129  and  _131
REMARK   53  A    between atoms: _131  and  _132
REMARK   54  A    between atoms: _131  and  _134
REMARK   55  A    between atoms: _134  and  _135
REMARK   56  A    between atoms: _135  and  _136
REMARK   57  A    between atoms: _141  and  _143
REMARK   58  A    between atoms: _143  and  _144
REMARK   59  A    between atoms: _143  and  _146
REMARK   60  A    between atoms: _146  and  _147
REMARK   61  A    between atoms: _147  and  _148
REMARK   62  A    between atoms: _148  and  _149
REMARK   63  A    between atoms: _158  and  _160
REMARK   64  A    between atoms: _160  and  _161
REMARK   65  A    between atoms: _163  and  _165
REMARK   66  A    between atoms: _165  and  _166
REMARK   67  A    between atoms: _165  and  _168
REMARK   68  A    between atoms: _168  and  _169
REMARK   69  A    between atoms: _174  and  _176
REMARK   70  A    between atoms: _176  and  _177
REMARK   71  A    between atoms: _176  and  _179
REMARK   72  A    between atoms: _179  and  _180
REMARK   73  A    between atoms: _183  and  _185
REMARK   74  A    between atoms: _185  and  _186
REMARK   75  A    between atoms: _185  and  _188
REMARK   76  A    between atoms: _188  and  _189
REMARK   77  A    between atoms: _192  and  _194
REMARK   78  A    between atoms: _194  and  _195
REMARK   79  A    between atoms: _194  and  _197
REMARK   80  A    between atoms: _197  and  _198
REMARK   81  A    between atoms: _203  and  _205
REMARK   82  A    between atoms: _205  and  _206
REMARK   83  A    between atoms: _205  and  _208
REMARK   84  A    between atoms: _208  and  _209
REMARK   85  A    between atoms: _212  and  _214
REMARK   86  A    between atoms: _214  and  _215
REMARK   87  A    between atoms: _214  and  _217
REMARK   88  A    between atoms: _217  and  _218
REMARK   89  A    between atoms: _223  and  _225
REMARK   90  A    between atoms: _225  and  _226
REMARK   91  A    between atoms: _228  and  _230
REMARK   92  A    between atoms: _230  and  _231
REMARK   93  A    between atoms: _230  and  _233
REMARK   94  A    between atoms: _233  and  _234
REMARK   95  A    between atoms: _238  and  ZN_939
REMARK   96  A    between atoms: _239  and  _241
REMARK   97  A    between atoms: _241  and  _242
REMARK   98  A    between atoms: _241  and  _244
REMARK   99  A    between atoms: _244  and  _245
REMARK  100  A    between atoms: _248  and  _250
REMARK  101  A    between atoms: _250  and  _251
REMARK  102  A    between atoms: _250  and  _253
REMARK  103  A    between atoms: _253  and  _254
REMARK  104  A    between atoms: _264  and  _266
REMARK  105  A    between atoms: _266  and  _267
REMARK  106  A    between atoms: _266  and  _269
REMARK  107  A    between atoms: _269  and  _270
REMARK  108  A    between atoms: _273  and  _275
REMARK  109  A    between atoms: _275  and  _276
REMARK  110  A    between atoms: _275  and  _278
REMARK  111  A    between atoms: _278  and  _279
REMARK  112  A    between atoms: _279  and  _280
REMARK  113  A    between atoms: _279  and  _281
REMARK  114  A    between atoms: _280  and  ZN_939
REMARK  115  A    between atoms: _281  and  ZN_938
REMARK  116  A    between atoms: _283  and  _284
REMARK  117  A    between atoms: _289  and  _291
REMARK  118  A    between atoms: _291  and  _292
REMARK  119  A    between atoms: _295  and  _297
REMARK  120  A    between atoms: _297  and  _298
REMARK  121  A    between atoms: _297  and  _300
REMARK  122  A    between atoms: _300  and  _301
REMARK  123  A    between atoms: _301  and  _302
REMARK  124  A    between atoms: _305  and  _307
REMARK  125  A    between atoms: _307  and  _308
REMARK  126  A    between atoms: _307  and  _310
REMARK  127  A    between atoms: _310  and  _311
REMARK  128  A    between atoms: _311  and  _312
REMARK  129  A    between atoms: _312  and  _314
REMARK  130  A    between atoms: _314  and  ZN_938
REMARK  131  A    between atoms: _315  and  _317
REMARK  132  A    between atoms: _317  and  _318
REMARK  133  A    between atoms: _317  and  _320
REMARK  134  A    between atoms: _320  and  _321
REMARK  135  A    between atoms: _327  and  _329
REMARK  136  A    between atoms: _329  and  _330
REMARK  137  A    between atoms: _332  and  _334
REMARK  138  A    between atoms: _334  and  _335
REMARK  139  A    between atoms: _334  and  _337
REMARK  140  A    between atoms: _337  and  _338
REMARK  141  A    between atoms: _341  and  _343
REMARK  142  A    between atoms: _343  and  _344
REMARK  143  A    between atoms: _343  and  _346
REMARK  144  A    between atoms: _346  and  _347
REMARK  145  A    between atoms: _350  and  _352
REMARK  146  A    between atoms: _352  and  _353
REMARK  147  A    between atoms: _352  and  _355
REMARK  148  A    between atoms: _355  and  _356
REMARK  149  A    between atoms: _361  and  _363
REMARK  150  A    between atoms: _363  and  _364
REMARK  151  A    between atoms: _363  and  _366
REMARK  152  A    between atoms: _366  and  _367
REMARK  153  A    between atoms: _367  and  _369
REMARK  154  A    between atoms: _369  and  ZN_939
REMARK  155  A    between atoms: _370  and  _372
REMARK  156  A    between atoms: _372  and  _373
REMARK  157  A    between atoms: _372  and  _375
REMARK  158  A    between atoms: _375  and  _376
REMARK  159  A    between atoms: _378  and  _380
REMARK  160  A    between atoms: _380  and  _381
REMARK  161  A    between atoms: _380  and  _383
REMARK  162  A    between atoms: _383  and  _384
REMARK  163  A    between atoms: _386  and  _388
REMARK  164  A    between atoms: _388  and  _389
REMARK  165  A    between atoms: _388  and  _391
REMARK  166  A    between atoms: _391  and  _392
REMARK  167  A    between atoms: _395  and  _397
REMARK  168  A    between atoms: _397  and  _398
REMARK  169  A    between atoms: _397  and  _400
REMARK  170  A    between atoms: _400  and  _401
REMARK  171  A    between atoms: _401  and  _402
REMARK  172  A    between atoms: _405  and  _407
REMARK  173  A    between atoms: _407  and  _408
REMARK  174  A    between atoms: _407  and  _410
REMARK  175  A    between atoms: _410  and  _411
REMARK  176  A    between atoms: _416  and  _417
REMARK  177  A    between atoms: _419  and  _421
REMARK  178  A    between atoms: _421  and  _422
REMARK  179  A    between atoms: _421  and  _424
REMARK  180  A    between atoms: _424  and  _425
REMARK  181  A    between atoms: _428  and  _430
REMARK  182  A    between atoms: _430  and  _431
REMARK  183  A    between atoms: _430  and  _433
REMARK  184  A    between atoms: _433  and  _434
REMARK  185  A    between atoms: _437  and  _439
REMARK  186  A    between atoms: _439  and  _440
REMARK  187  A    between atoms: _439  and  _442
REMARK  188  A    between atoms: _442  and  _443
REMARK  189  A    between atoms: _443  and  _444
REMARK  190  A    between atoms: _444  and  _445
REMARK  191  A    between atoms: _454  and  _456
REMARK  192  A    between atoms: _456  and  _457
REMARK  193  A    between atoms: _456  and  _459
REMARK  194  A    between atoms: _462  and  _464
REMARK  195  A    between atoms: _464  and  _465
REMARK  196  A    between atoms: _464  and  _467
REMARK  197  A    between atoms: _467  and  _468
REMARK  198  A    between atoms: _471  and  _473
REMARK  199  A    between atoms: _473  and  _474
REMARK  200  A    between atoms: _473  and  _476
REMARK  201  A    between atoms: _476  and  _477
REMARK  202  A    between atoms: _487  and  _489
REMARK  203  A    between atoms: _489  and  _490
REMARK  204  A    between atoms: _489  and  _492
REMARK  205  A    between atoms: _492  and  _493
REMARK  206  A    between atoms: _493  and  _494
REMARK  207  A    between atoms: _494  and  _495
REMARK  208  A    between atoms: _495  and  _496
REMARK  209  A    between atoms: _500  and  _502
REMARK  210  A    between atoms: _502  and  _503
REMARK  211  A    between atoms: _502  and  _505
REMARK  212  A    between atoms: _505  and  _506
REMARK  213  A    between atoms: _509  and  _510
REMARK  214  A    between atoms: _516  and  _517
REMARK  215  A    between atoms: _522  and  _524
REMARK  216  A    between atoms: _524  and  _525
REMARK  217  A    between atoms: _524  and  _527
REMARK  218  A    between atoms: _527  and  _528
REMARK  219  A    between atoms: _528  and  _529
REMARK  220  A    between atoms: _529  and  _530
REMARK  221  A    between atoms: _539  and  _541
REMARK  222  A    between atoms: _541  and  _542
REMARK  223  A    between atoms: _541  and  _544
REMARK  224  A    between atoms: _544  and  _545
REMARK  225  A    between atoms: _548  and  _550
REMARK  226  A    between atoms: _550  and  _551
REMARK  227  A    between atoms: _550  and  _553
REMARK  228  A    between atoms: _553  and  _554
REMARK  229  A    between atoms: _556  and  _558
REMARK  230  A    between atoms: _558  and  _559
REMARK  231  A    between atoms: _558  and  _561
REMARK  232  A    between atoms: _561  and  _562
REMARK  233  A    between atoms: _562  and  _563
REMARK  234  A    between atoms: _563  and  _564
REMARK  235  A    between atoms: _564  and  _565
REMARK  236  A    between atoms: _569  and  _571
REMARK  237  A    between atoms: _571  and  _572
REMARK  238  A    between atoms: _571  and  _574
REMARK  239  A    between atoms: _574  and  _575
REMARK  240  A    between atoms: _578  and  _580
REMARK  241  A    between atoms: _580  and  _581
REMARK  242  A    between atoms: _583  and  _585
REMARK  243  A    between atoms: _585  and  _586
REMARK  244  A    between atoms: _585  and  _588
REMARK  245  A    between atoms: _588  and  _589
REMARK  246  A    between atoms: _591  and  _593
REMARK  247  A    between atoms: _593  and  _594
REMARK  248  A    between atoms: _596  and  _598
REMARK  249  A    between atoms: _598  and  _599
REMARK  250  A    between atoms: _598  and  _601
REMARK  251  A    between atoms: _601  and  _602
REMARK  252  A    between atoms: _607  and  _609
REMARK  253  A    between atoms: _609  and  _610
REMARK  254  A    between atoms: _609  and  _612
REMARK  255  A    between atoms: _612  and  _613
REMARK  256  A    between atoms: _616  and  _618
REMARK  257  A    between atoms: _618  and  _619
REMARK  258  A    between atoms: _618  and  _621
REMARK  259  A    between atoms: _621  and  _622
REMARK  260  A    between atoms: _628  and  _630
REMARK  261  A    between atoms: _630  and  _631
REMARK  262  A    between atoms: _630  and  _633
REMARK  263  A    between atoms: _633  and  _634
REMARK  264  A    between atoms: _634  and  _635
REMARK  265  A    between atoms: _638  and  _640
REMARK  266  A    between atoms: _640  and  _641
REMARK  267  A    between atoms: _640  and  _643
REMARK  268  A    between atoms: _643  and  _644
REMARK  269  A    between atoms: _644  and  _645
REMARK  270  A    between atoms: _645  and  _646
REMARK  271  A    between atoms: _655  and  _657
REMARK  272  A    between atoms: _657  and  _658
REMARK  273  A    between atoms: _657  and  _660
REMARK  274  A    between atoms: _660  and  _661
REMARK  275  A    between atoms: _661  and  _662
REMARK  276  A    between atoms: _662  and  _663
REMARK  277  A    between atoms: _672  and  _674
REMARK  278  A    between atoms: _674  and  _675
REMARK  279  A    between atoms: _674  and  _677
REMARK  280  A    between atoms: _677  and  _678
REMARK  281  A    between atoms: _683  and  _684
REMARK  282  A    between atoms: _686  and  _688
REMARK  283  A    between atoms: _688  and  _689
REMARK  284  A    between atoms: _688  and  _691
REMARK  285  A    between atoms: _691  and  _692
REMARK  286  A    between atoms: _695  and  _697
REMARK  287  A    between atoms: _697  and  _698
REMARK  288  A    between atoms: _697  and  _700
REMARK  289  A    between atoms: _700  and  _701
REMARK  290  A    between atoms: _701  and  _702
REMARK  291  A    between atoms: _702  and  _703
REMARK  292  A    between atoms: _703  and  _704
REMARK  293  A    between atoms: _708  and  _710
REMARK  294  A    between atoms: _710  and  _711
REMARK  295  A    between atoms: _710  and  _713
REMARK  296  A    between atoms: _713  and  _714
REMARK  297  A    between atoms: _719  and  _721
REMARK  298  A    between atoms: _721  and  _722
REMARK  299  A    between atoms: _721  and  _724
REMARK  300  A    between atoms: _724  and  _725
REMARK  301  A    between atoms: _735  and  _737
REMARK  302  A    between atoms: _737  and  _738
REMARK  303  A    between atoms: _737  and  _740
REMARK  304  A    between atoms: _740  and  _741
REMARK  305  A    between atoms: _741  and  _742
REMARK  306  A    between atoms: _745  and  _747
REMARK  307  A    between atoms: _747  and  _748
REMARK  308  A    between atoms: _747  and  _750
REMARK  309  A    between atoms: _750  and  _751
REMARK  310  A    between atoms: _754  and  _756
REMARK  311  A    between atoms: _756  and  _757
REMARK  312  A    between atoms: _756  and  _759
REMARK  313  A    between atoms: _759  and  _760
REMARK  314  A    between atoms: _765  and  _767
REMARK  315  A    between atoms: _767  and  _768
REMARK  316  A    between atoms: _767  and  _770
REMARK  317  A    between atoms: _770  and  _771
REMARK  318  A    between atoms: _777  and  _779
REMARK  319  A    between atoms: _779  and  _780
REMARK  320  A    between atoms: _779  and  _782
REMARK  321  A    between atoms: _782  and  _783
REMARK  322  A    between atoms: _785  and  _787
REMARK  323  A    between atoms: _787  and  _788
REMARK  324  A    between atoms: _790  and  _792
REMARK  325  A    between atoms: _792  and  _793
REMARK  326  A    between atoms: _792  and  _795
REMARK  327  A    between atoms: _795  and  _796
REMARK  328  A    between atoms: _801  and  _802
REMARK  329  A    between atoms: _804  and  _806
REMARK  330  A    between atoms: _806  and  _807
REMARK  331  A    between atoms: _806  and  _809
REMARK  332  A    between atoms: _809  and  _810
REMARK  333  A    between atoms: _815  and  _816
REMARK  334  A    between atoms: _818  and  _820
REMARK  335  A    between atoms: _820  and  _821
REMARK  336  A    between atoms: _820  and  _823
REMARK  337  A    between atoms: _823  and  _824
REMARK  338  A    between atoms: _828  and  ZN_938
REMARK  339  A    between atoms: _829  and  _831
REMARK  340  A    between atoms: _831  and  _832
REMARK  341  A    between atoms: _831  and  _834
REMARK  342  A    between atoms: _834  and  _835
REMARK  343  A    between atoms: _835  and  _836
REMARK  344  A    between atoms: _839  and  _841
REMARK  345  A    between atoms: _841  and  _842
REMARK  346  A    between atoms: _841  and  _844
REMARK  347  A    between atoms: _844  and  _845
REMARK  348  A    between atoms: _845  and  _846
REMARK  349  A    between atoms: _846  and  _847
REMARK  350  A    between atoms: _856  and  _858
REMARK  351  A    between atoms: _858  and  _859
REMARK  352  A    between atoms: _858  and  _861
REMARK  353  A    between atoms: _861  and  _862
REMARK  354  A    between atoms: _867  and  _868
REMARK  355  A    between atoms: _870  and  _872
REMARK  356  A    between atoms: _872  and  _873
REMARK  357  A    between atoms: _872  and  _875
REMARK  358  A    between atoms: _875  and  _876
REMARK  359  A    between atoms: _878  and  _880
REMARK  360  A    between atoms: _880  and  _881
REMARK  361  A    between atoms: _880  and  _883
REMARK  362  A    between atoms: _883  and  _884
REMARK  363  A    between atoms: _889  and  _891
REMARK  364  A    between atoms: _891  and  _892
REMARK  365  A    between atoms: _891  and  _894
REMARK  366  A    between atoms: _894  and  _895
REMARK  367  A    between atoms: _900  and  _902
REMARK  368  A    between atoms: _902  and  _903
REMARK  369  A    between atoms: _902  and  _905
REMARK  370  A    between atoms: _905  and  _906
REMARK  371  A    between atoms: _906  and  _907
REMARK  372  A    between atoms: _907  and  _908
REMARK  373  A    between atoms: _908  and  _909
REMARK  374  A    between atoms: _913  and  _915
REMARK  375  A    between atoms: _915  and  _916
REMARK  376  A    between atoms: _915  and  _918
REMARK  377  A    between atoms: _918  and  _919
REMARK  378  A    between atoms: _924  and  _925
REMARK  379  A    between atoms: _927  and  _929
REMARK  380  A    between atoms: _929  and  _930
REMARK  381  A    between atoms: _933  and  _935
REMARK  382  A    between atoms: _935  and  _936
REMARK                            x       y       z     vdW  Elec       q    Type
REMARK                         _______ _______ _______ _____ _____    ______ ____
ROOT
ATOM      1  O   HOH     1       7.906  50.308  40.868  0.00  0.00    +0.000 OA
ENDROOT
TORSDOF 0
REMARK  Name = ../refined-set-2016/2xeg/2xeg_pocket.pdb
REMARK  382 active torsions:
REMARK  status: ('A' for Active; 'I' for Inactive)
REMARK    1  A    between atoms: _1  and  _3
REMARK    2  A    between atoms: _3  and  _4
REMARK    3  A    between atoms: _7  and  _9
REMARK    4  A    between atoms: _9  and  _10
REMARK    5  A    between atoms: _9  and  _12
REMARK    6  A    between atoms: _12  and  _13
REMARK    7  A    between atoms: _19  and  _21
REMARK    8  A    between atoms: _21  and  _22
REMARK    9  A    between atoms: _21  and  _24
REMARK   10  A    between atoms: _24  and  _25
REMARK   11  A    between atoms: _30  and  _31
REMARK   12  A    between atoms: _33  and  _35
REMARK   13  A    between atoms: _35  and  _36
REMARK   14  A    between atoms: _38  and  _40
REMARK   15  A    between atoms: _40  and  _41
REMARK   16  A    between atoms: _40  and  _43
REMARK   17  A    between atoms: _43  and  _44
REMARK   18  A    between atoms: _44  and  _45
REMARK   19  A    between atoms: _45  and  _46
REMARK   20  A    between atoms: _46  and  _47
REMARK   21  A    between atoms: _51  and  _53
REMARK   22  A    between atoms: _53  and  _54
REMARK   23  A    between atoms: _53  and  _56
REMARK   24  A    between atoms: _59  and  _61
REMARK   25  A    between atoms: _61  and  _62
REMARK   26  A    between atoms: _61  and  _64
REMARK   27  A    between atoms: _64  and  _65
REMARK   28  A    between atoms: _71  and  _73
REMARK   29  A    between atoms: _73  and  _74
REMARK   30  A    between atoms: _73  and  _76
REMARK   31  A    between atoms: _76  and  _77
REMARK   32  A    between atoms: _77  and  _78
REMARK   33  A    between atoms: _78  and  _79
REMARK   34  A    between atoms: _88  and  _90
REMARK   35  A    between atoms: _90  and  _91
REMARK   36  A    between atoms: _93  and  _95
REMARK   37  A    between atoms: _95  and  _96
REMARK   38  A    between atoms: _95  and  _98
REMARK   39  A    between atoms: _98  and  _99
REMARK   40  A    between atoms: _99  and  _100
REMARK   41  A    between atoms: _100  and  _101
REMARK   42  A    between atoms: _101  and  _102
REMARK   43  A    between atoms: _106  and  _108
REMARK   44  A    between atoms: _108  and  _109
REMARK   45  A    between atoms: _108  and  _111
REMARK   46  A    between atoms: _111  and  _112
REMARK   47  A    between atoms: _115  and  _117
REMARK   48  A    between atoms: _117  and  _118
REMARK   49  A    between atoms: _117  and  _120
REMARK   50  A    between atoms: _120  and  _121
REMARK   51  A    between atoms: _126  and  _127
REMARK   52  A    between atoms: _129  and  _131
REMARK   53  A    between atoms: _131  and  _132
REMARK   54  A    between atoms: _131  and  _134
REMARK   55  A    between atoms: _134  and  _135
REMARK   56  A    between atoms: _135  and  _136
REMARK   57  A    between atoms: _141  and  _143
REMARK   58  A    between atoms: _143  and  _144
REMARK   59  A    between atoms: _143  and  _146
REMARK   60  A    between atoms: _146  and  _147
REMARK   61  A    between atoms: _147  and  _148
REMARK   62  A    between atoms: _148  and  _149
REMARK   63  A    between atoms: _158  and  _160
REMARK   64  A    between atoms: _160  and  _161
REMARK   65  A    between atoms: _163  and  _165
REMARK   66  A    between atoms: _165  and  _166
REMARK   67  A    between atoms: _165  and  _168
REMARK   68  A    between atoms: _168  and  _169
REMARK   69  A    between atoms: _174  and  _176
REMARK   70  A    between atoms: _176  and  _177
REMARK   71  A    between atoms: _176  and  _179
REMARK   72  A    between atoms: _179  and  _180
REMARK   73  A    between atoms: _183  and  _185
REMARK   74  A    between atoms: _185  and  _186
REMARK   75  A    between atoms: _185  and  _188
REMARK   76  A    between atoms: _188  and  _189
REMARK   77  A    between atoms: _192  and  _194
REMARK   78  A    between atoms: _194  and  _195
REMARK   79  A    between atoms: _194  and  _197
REMARK   80  A    between atoms: _197  and  _198
REMARK   81  A    between atoms: _203  and  _205
REMARK   82  A    between atoms: _205  and  _206
REMARK   83  A    between atoms: _205  and  _208
REMARK   84  A    between atoms: _208  and  _209
REMARK   85  A    between atoms: _212  and  _214
REMARK   86  A    between atoms: _214  and  _215
REMARK   87  A    between atoms: _214  and  _217
REMARK   88  A    between atoms: _217  and  _218
REMARK   89  A    between atoms: _223  and  _225
REMARK   90  A    between atoms: _225  and  _226
REMARK   91  A    between atoms: _228  and  _230
REMARK   92  A    between atoms: _230  and  _231
REMARK   93  A    between atoms: _230  and  _233
REMARK   94  A    between atoms: _233  and  _234
REMARK   95  A    between atoms: _238  and  ZN_939
REMARK   96  A    between atoms: _239  and  _241
REMARK   97  A    between atoms: _241  and  _242
REMARK   98  A    between atoms: _241  and  _244
REMARK   99  A    between atoms: _244  and  _245
REMARK  100  A    between atoms: _248  and  _250
REMARK  101  A    between atoms: _250  and  _251
REMARK  102  A    between atoms: _250  and  _253
REMARK  103  A    between atoms: _253  and  _254
REMARK  104  A    between atoms: _264  and  _266
REMARK  105  A    between atoms: _266  and  _267
REMARK  106  A    between atoms: _266  and  _269
REMARK  107  A    between atoms: _269  and  _270
REMARK  108  A    between atoms: _273  and  _275
REMARK  109  A    between atoms: _275  and  _276
REMARK  110  A    between atoms: _275  and  _278
REMARK  111  A    between atoms: _278  and  _279
REMARK  112  A    between atoms: _279  and  _280
REMARK  113  A    between atoms: _279  and  _281
REMARK  114  A    between atoms: _280  and  ZN_939
REMARK  115  A    between atoms: _281  and  ZN_938
REMARK  116  A    between atoms: _283  and  _284
REMARK  117  A    between atoms: _289  and  _291
REMARK  118  A    between atoms: _291  and  _292
REMARK  119  A    between atoms: _295  and  _297
REMARK  120  A    between atoms: _297  and  _298
REMARK  121  A    between atoms: _297  and  _300
REMARK  122  A    between atoms: _300  and  _301
REMARK  123  A    between atoms: _301  and  _302
REMARK  124  A    between atoms: _305  and  _307
REMARK  125  A    between atoms: _307  and  _308
REMARK  126  A    between atoms: _307  and  _310
REMARK  127  A    between atoms: _310  and  _311
REMARK  128  A    between atoms: _311  and  _312
REMARK  129  A    between atoms: _312  and  _314
REMARK  130  A    between atoms: _314  and  ZN_938
REMARK  131  A    between atoms: _315  and  _317
REMARK  132  A    between atoms: _317  and  _318
REMARK  133  A    between atoms: _317  and  _320
REMARK  134  A    between atoms: _320  and  _321
REMARK  135  A    between atoms: _327  and  _329
REMARK  136  A    between atoms: _329  and  _330
REMARK  137  A    between atoms: _332  and  _334
REMARK  138  A    between atoms: _334  and  _335
REMARK  139  A    between atoms: _334  and  _337
REMARK  140  A    between atoms: _337  and  _338
REMARK  141  A    between atoms: _341  and  _343
REMARK  142  A    between atoms: _343  and  _344
REMARK  143  A    between atoms: _343  and  _346
REMARK  144  A    between atoms: _346  and  _347
REMARK  145  A    between atoms: _350  and  _352
REMARK  146  A    between atoms: _352  and  _353
REMARK  147  A    between atoms: _352  and  _355
REMARK  148  A    between atoms: _355  and  _356
REMARK  149  A    between atoms: _361  and  _363
REMARK  150  A    between atoms: _363  and  _364
REMARK  151  A    between atoms: _363  and  _366
REMARK  152  A    between atoms: _366  and  _367
REMARK  153  A    between atoms: _367  and  _369
REMARK  154  A    between atoms: _369  and  ZN_939
REMARK  155  A    between atoms: _370  and  _372
REMARK  156  A    between atoms: _372  and  _373
REMARK  157  A    between atoms: _372  and  _375
REMARK  158  A    between atoms: _375  and  _376
REMARK  159  A    between atoms: _378  and  _380
REMARK  160  A    between atoms: _380  and  _381
REMARK  161  A    between atoms: _380  and  _383
REMARK  162  A    between atoms: _383  and  _384
REMARK  163  A    between atoms: _386  and  _388
REMARK  164  A    between atoms: _388  and  _389
REMARK  165  A    between atoms: _388  and  _391
REMARK  166  A    between atoms: _391  and  _392
REMARK  167  A    between atoms: _395  and  _397
REMARK  168  A    between atoms: _397  and  _398
REMARK  169  A    between atoms: _397  and  _400
REMARK  170  A    between atoms: _400  and  _401
REMARK  171  A    between atoms: _401  and  _402
REMARK  172  A    between atoms: _405  and  _407
REMARK  173  A    between atoms: _407  and  _408
REMARK  174  A    between atoms: _407  and  _410
REMARK  175  A    between atoms: _410  and  _411
REMARK  176  A    between atoms: _416  and  _417
REMARK  177  A    between atoms: _419  and  _421
REMARK  178  A    between atoms: _421  and  _422
REMARK  179  A    between atoms: _421  and  _424
REMARK  180  A    between atoms: _424  and  _425
REMARK  181  A    between atoms: _428  and  _430
REMARK  182  A    between atoms: _430  and  _431
REMARK  183  A    between atoms: _430  and  _433
REMARK  184  A    between atoms: _433  and  _434
REMARK  185  A    between atoms: _437  and  _439
REMARK  186  A    between atoms: _439  and  _440
REMARK  187  A    between atoms: _439  and  _442
REMARK  188  A    between atoms: _442  and  _443
REMARK  189  A    between atoms: _443  and  _444
REMARK  190  A    between atoms: _444  and  _445
REMARK  191  A    between atoms: _454  and  _456
REMARK  192  A    between atoms: _456  and  _457
REMARK  193  A    between atoms: _456  and  _459
REMARK  194  A    between atoms: _462  and  _464
REMARK  195  A    between atoms: _464  and  _465
REMARK  196  A    between atoms: _464  and  _467
REMARK  197  A    between atoms: _467  and  _468
REMARK  198  A    between atoms: _471  and  _473
REMARK  199  A    between atoms: _473  and  _474
REMARK  200  A    between atoms: _473  and  _476
REMARK  201  A    between atoms: _476  and  _477
REMARK  202  A    between atoms: _487  and  _489
REMARK  203  A    between atoms: _489  and  _490
REMARK  204  A    between atoms: _489  and  _492
REMARK  205  A    between atoms: _492  and  _493
REMARK  206  A    between atoms: _493  and  _494
REMARK  207  A    between atoms: _494  and  _495
REMARK  208  A    between atoms: _495  and  _496
REMARK  209  A    between atoms: _500  and  _502
REMARK  210  A    between atoms: _502  and  _503
REMARK  211  A    between atoms: _502  and  _505
REMARK  212  A    between atoms: _505  and  _506
REMARK  213  A    between atoms: _509  and  _510
REMARK  214  A    between atoms: _516  and  _517
REMARK  215  A    between atoms: _522  and  _524
REMARK  216  A    between atoms: _524  and  _525
REMARK  217  A    between atoms: _524  and  _527
REMARK  218  A    between atoms: _527  and  _528
REMARK  219  A    between atoms: _528  and  _529
REMARK  220  A    between atoms: _529  and  _530
REMARK  221  A    between atoms: _539  and  _541
REMARK  222  A    between atoms: _541  and  _542
REMARK  223  A    between atoms: _541  and  _544
REMARK  224  A    between atoms: _544  and  _545
REMARK  225  A    between atoms: _548  and  _550
REMARK  226  A    between atoms: _550  and  _551
REMARK  227  A    between atoms: _550  and  _553
REMARK  228  A    between atoms: _553  and  _554
REMARK  229  A    between atoms: _556  and  _558
REMARK  230  A    between atoms: _558  and  _559
REMARK  231  A    between atoms: _558  and  _561
REMARK  232  A    between atoms: _561  and  _562
REMARK  233  A    between atoms: _562  and  _563
REMARK  234  A    between atoms: _563  and  _564
REMARK  235  A    between atoms: _564  and  _565
REMARK  236  A    between atoms: _569  and  _571
REMARK  237  A    between atoms: _571  and  _572
REMARK  238  A    between atoms: _571  and  _574
REMARK  239  A    between atoms: _574  and  _575
REMARK  240  A    between atoms: _578  and  _580
REMARK  241  A    between atoms: _580  and  _581
REMARK  242  A    between atoms: _583  and  _585
REMARK  243  A    between atoms: _585  and  _586
REMARK  244  A    between atoms: _585  and  _588
REMARK  245  A    between atoms: _588  and  _589
REMARK  246  A    between atoms: _591  and  _593
REMARK  247  A    between atoms: _593  and  _594
REMARK  248  A    between atoms: _596  and  _598
REMARK  249  A    between atoms: _598  and  _599
REMARK  250  A    between atoms: _598  and  _601
REMARK  251  A    between atoms: _601  and  _602
REMARK  252  A    between atoms: _607  and  _609
REMARK  253  A    between atoms: _609  and  _610
REMARK  254  A    between atoms: _609  and  _612
REMARK  255  A    between atoms: _612  and  _613
REMARK  256  A    between atoms: _616  and  _618
REMARK  257  A    between atoms: _618  and  _619
REMARK  258  A    between atoms: _618  and  _621
REMARK  259  A    between atoms: _621  and  _622
REMARK  260  A    between atoms: _628  and  _630
REMARK  261  A    between atoms: _630  and  _631
REMARK  262  A    between atoms: _630  and  _633
REMARK  263  A    between atoms: _633  and  _634
REMARK  264  A    between atoms: _634  and  _635
REMARK  265  A    between atoms: _638  and  _640
REMARK  266  A    between atoms: _640  and  _641
REMARK  267  A    between atoms: _640  and  _643
REMARK  268  A    between atoms: _643  and  _644
REMARK  269  A    between atoms: _644  and  _645
REMARK  270  A    between atoms: _645  and  _646
REMARK  271  A    between atoms: _655  and  _657
REMARK  272  A    between atoms: _657  and  _658
REMARK  273  A    between atoms: _657  and  _660
REMARK  274  A    between atoms: _660  and  _661
REMARK  275  A    between atoms: _661  and  _662
REMARK  276  A    between atoms: _662  and  _663
REMARK  277  A    between atoms: _672  and  _674
REMARK  278  A    between atoms: _674  and  _675
REMARK  279  A    between atoms: _674  and  _677
REMARK  280  A    between atoms: _677  and  _678
REMARK  281  A    between atoms: _683  and  _684
REMARK  282  A    between atoms: _686  and  _688
REMARK  283  A    between atoms: _688  and  _689
REMARK  284  A    between atoms: _688  and  _691
REMARK  285  A    between atoms: _691  and  _692
REMARK  286  A    between atoms: _695  and  _697
REMARK  287  A    between atoms: _697  and  _698
REMARK  288  A    between atoms: _697  and  _700
REMARK  289  A    between atoms: _700  and  _701
REMARK  290  A    between atoms: _701  and  _702
REMARK  291  A    between atoms: _702  and  _703
REMARK  292  A    between atoms: _703  and  _704
REMARK  293  A    between atoms: _708  and  _710
REMARK  294  A    between atoms: _710  and  _711
REMARK  295  A    between atoms: _710  and  _713
REMARK  296  A    between atoms: _713  and  _714
REMARK  297  A    between atoms: _719  and  _721
REMARK  298  A    between atoms: _721  and  _722
REMARK  299  A    between atoms: _721  and  _724
REMARK  300  A    between atoms: _724  and  _725
REMARK  301  A    between atoms: _735  and  _737
REMARK  302  A    between atoms: _737  and  _738
REMARK  303  A    between atoms: _737  and  _740
REMARK  304  A    between atoms: _740  and  _741
REMARK  305  A    between atoms: _741  and  _742
REMARK  306  A    between atoms: _745  and  _747
REMARK  307  A    between atoms: _747  and  _748
REMARK  308  A    between atoms: _747  and  _750
REMARK  309  A    between atoms: _750  and  _751
REMARK  310  A    between atoms: _754  and  _756
REMARK  311  A    between atoms: _756  and  _757
REMARK  312  A    between atoms: _756  and  _759
REMARK  313  A    between atoms: _759  and  _760
REMARK  314  A    between atoms: _765  and  _767
REMARK  315  A    between atoms: _767  and  _768
REMARK  316  A    between atoms: _767  and  _770
REMARK  317  A    between atoms: _770  and  _771
REMARK  318  A    between atoms: _777  and  _779
REMARK  319  A    between atoms: _779  and  _780
REMARK  320  A    between atoms: _779  and  _782
REMARK  321  A    between atoms: _782  and  _783
REMARK  322  A    between atoms: _785  and  _787
REMARK  323  A    between atoms: _787  and  _788
REMARK  324  A    between atoms: _790  and  _792
REMARK  325  A    between atoms: _792  and  _793
REMARK  326  A    between atoms: _792  and  _795
REMARK  327  A    between atoms: _795  and  _796
REMARK  328  A    between atoms: _801  and  _802
REMARK  329  A    between atoms: _804  and  _806
REMARK  330  A    between atoms: _806  and  _807
REMARK  331  A    between atoms: _806  and  _809
REMARK  332  A    between atoms: _809  and  _810
REMARK  333  A    between atoms: _815  and  _816
REMARK  334  A    between atoms: _818  and  _820
REMARK  335  A    between atoms: _820  and  _821
REMARK  336  A    between atoms: _820  and  _823
REMARK  337  A    between atoms: _823  and  _824
REMARK  338  A    between atoms: _828  and  ZN_938
REMARK  339  A    between atoms: _829  and  _831
REMARK  340  A    between atoms: _831  and  _832
REMARK  341  A    between atoms: _831  and  _834
REMARK  342  A    between atoms: _834  and  _835
REMARK  343  A    between atoms: _835  and  _836
REMARK  344  A    between atoms: _839  and  _841
REMARK  345  A    between atoms: _841  and  _842
REMARK  346  A    between atoms: _841  and  _844
REMARK  347  A    between atoms: _844  and  _845
REMARK  348  A    between atoms: _845  and  _846
REMARK  349  A    between atoms: _846  and  _847
REMARK  350  A    between atoms: _856  and  _858
REMARK  351  A    between atoms: _858  and  _859
REMARK  352  A    between atoms: _858  and  _861
REMARK  353  A    between atoms: _861  and  _862
REMARK  354  A    between atoms: _867  and  _868
REMARK  355  A    between atoms: _870  and  _872
REMARK  356  A    between atoms: _872  and  _873
REMARK  357  A    between atoms: _872  and  _875
REMARK  358  A    between atoms: _875  and  _876
REMARK  359  A    between atoms: _878  and  _880
REMARK  360  A    between atoms: _880  and  _881
REMARK  361  A    between atoms: _880  and  _883
REMARK  362  A    between atoms: _883  and  _884
REMARK  363  A    between atoms: _889  and  _891
REMARK  364  A    between atoms: _891  and  _892
REMARK  365  A    between atoms: _891  and  _894
REMARK  366  A    between atoms: _894  and  _895
REMARK  367  A    between atoms: _900  and  _902
REMARK  368  A    between atoms: _902  and  _903
REMARK  369  A    between atoms: _902  and  _905
REMARK  370  A    between atoms: _905  and  _906
REMARK  371  A    between atoms: _906  and  _907
REMARK  372  A    between atoms: _907  and  _908
REMARK  373  A    between atoms: _908  and  _909
REMARK  374  A    between atoms: _913  and  _915
REMARK  375  A    between atoms: _915  and  _916
REMARK  376  A    between atoms: _915  and  _918
REMARK  377  A    between atoms: _918  and  _919
REMARK  378  A    between atoms: _924  and  _925
REMARK  379  A    between atoms: _927  and  _929
REMARK  380  A    between atoms: _929  and  _930
REMARK  381  A    between atoms: _933  and  _935
REMARK  382  A    between atoms: _935  and  _936
REMARK                            x       y       z     vdW  Elec       q    Type
REMARK                         _______ _______ _______ _____ _____    ______ ____
ROOT
ATOM      1  O   HOH     1      24.751  44.038  45.412  0.00  0.00    +0.000 OA
ENDROOT
TORSDOF 0
REMARK  Name = ../refined-set-2016/2xeg/2xeg_pocket.pdb
REMARK  382 active torsions:
REMARK  status: ('A' for Active; 'I' for Inactive)
REMARK    1  A    between atoms: _1  and  _3
REMARK    2  A    between atoms: _3  and  _4
REMARK    3  A    between atoms: _7  and  _9
REMARK    4  A    between atoms: _9  and  _10
REMARK    5  A    between atoms: _9  and  _12
REMARK    6  A    between atoms: _12  and  _13
REMARK    7  A    between atoms: _19  and  _21
REMARK    8  A    between atoms: _21  and  _22
REMARK    9  A    between atoms: _21  and  _24
REMARK   10  A    between atoms: _24  and  _25
REMARK   11  A    between atoms: _30  and  _31
REMARK   12  A    between atoms: _33  and  _35
REMARK   13  A    between atoms: _35  and  _36
REMARK   14  A    between atoms: _38  and  _40
REMARK   15  A    between atoms: _40  and  _41
REMARK   16  A    between atoms: _40  and  _43
REMARK   17  A    between atoms: _43  and  _44
REMARK   18  A    between atoms: _44  and  _45
REMARK   19  A    between atoms: _45  and  _46
REMARK   20  A    between atoms: _46  and  _47
REMARK   21  A    between atoms: _51  and  _53
REMARK   22  A    between atoms: _53  and  _54
REMARK   23  A    between atoms: _53  and  _56
REMARK   24  A    between atoms: _59  and  _61
REMARK   25  A    between atoms: _61  and  _62
REMARK   26  A    between atoms: _61  and  _64
REMARK   27  A    between atoms: _64  and  _65
REMARK   28  A    between atoms: _71  and  _73
REMARK   29  A    between atoms: _73  and  _74
REMARK   30  A    between atoms: _73  and  _76
REMARK   31  A    between atoms: _76  and  _77
REMARK   32  A    between atoms: _77  and  _78
REMARK   33  A    between atoms: _78  and  _79
REMARK   34  A    between atoms: _88  and  _90
REMARK   35  A    between atoms: _90  and  _91
REMARK   36  A    between atoms: _93  and  _95
REMARK   37  A    between atoms: _95  and  _96
REMARK   38  A    between atoms: _95  and  _98
REMARK   39  A    between atoms: _98  and  _99
REMARK   40  A    between atoms: _99  and  _100
REMARK   41  A    between atoms: _100  and  _101
REMARK   42  A    between atoms: _101  and  _102
REMARK   43  A    between atoms: _106  and  _108
REMARK   44  A    between atoms: _108  and  _109
REMARK   45  A    between atoms: _108  and  _111
REMARK   46  A    between atoms: _111  and  _112
REMARK   47  A    between atoms: _115  and  _117
REMARK   48  A    between atoms: _117  and  _118
REMARK   49  A    between atoms: _117  and  _120
REMARK   50  A    between atoms: _120  and  _121
REMARK   51  A    between atoms: _126  and  _127
REMARK   52  A    between atoms: _129  and  _131
REMARK   53  A    between atoms: _131  and  _132
REMARK   54  A    between atoms: _131  and  _134
REMARK   55  A    between atoms: _134  and  _135
REMARK   56  A    between atoms: _135  and  _136
REMARK   57  A    between atoms: _141  and  _143
REMARK   58  A    between atoms: _143  and  _144
REMARK   59  A    between atoms: _143  and  _146
REMARK   60  A    between atoms: _146  and  _147
REMARK   61  A    between atoms: _147  and  _148
REMARK   62  A    between atoms: _148  and  _149
REMARK   63  A    between atoms: _158  and  _160
REMARK   64  A    between atoms: _160  and  _161
REMARK   65  A    between atoms: _163  and  _165
REMARK   66  A    between atoms: _165  and  _166
REMARK   67  A    between atoms: _165  and  _168
REMARK   68  A    between atoms: _168  and  _169
REMARK   69  A    between atoms: _174  and  _176
REMARK   70  A    between atoms: _176  and  _177
REMARK   71  A    between atoms: _176  and  _179
REMARK   72  A    between atoms: _179  and  _180
REMARK   73  A    between atoms: _183  and  _185
REMARK   74  A    between atoms: _185  and  _186
REMARK   75  A    between atoms: _185  and  _188
REMARK   76  A    between atoms: _188  and  _189
REMARK   77  A    between atoms: _192  and  _194
REMARK   78  A    between atoms: _194  and  _195
REMARK   79  A    between atoms: _194  and  _197
REMARK   80  A    between atoms: _197  and  _198
REMARK   81  A    between atoms: _203  and  _205
REMARK   82  A    between atoms: _205  and  _206
REMARK   83  A    between atoms: _205  and  _208
REMARK   84  A    between atoms: _208  and  _209
REMARK   85  A    between atoms: _212  and  _214
REMARK   86  A    between atoms: _214  and  _215
REMARK   87  A    between atoms: _214  and  _217
REMARK   88  A    between atoms: _217  and  _218
REMARK   89  A    between atoms: _223  and  _225
REMARK   90  A    between atoms: _225  and  _226
REMARK   91  A    between atoms: _228  and  _230
REMARK   92  A    between atoms: _230  and  _231
REMARK   93  A    between atoms: _230  and  _233
REMARK   94  A    between atoms: _233  and  _234
REMARK   95  A    between atoms: _238  and  ZN_939
REMARK   96  A    between atoms: _239  and  _241
REMARK   97  A    between atoms: _241  and  _242
REMARK   98  A    between atoms: _241  and  _244
REMARK   99  A    between atoms: _244  and  _245
REMARK  100  A    between atoms: _248  and  _250
REMARK  101  A    between atoms: _250  and  _251
REMARK  102  A    between atoms: _250  and  _253
REMARK  103  A    between atoms: _253  and  _254
REMARK  104  A    between atoms: _264  and  _266
REMARK  105  A    between atoms: _266  and  _267
REMARK  106  A    between atoms: _266  and  _269
REMARK  107  A    between atoms: _269  and  _270
REMARK  108  A    between atoms: _273  and  _275
REMARK  109  A    between atoms: _275  and  _276
REMARK  110  A    between atoms: _275  and  _278
REMARK  111  A    between atoms: _278  and  _279
REMARK  112  A    between atoms: _279  and  _280
REMARK  113  A    between atoms: _279  and  _281
REMARK  114  A    between atoms: _280  and  ZN_939
REMARK  115  A    between atoms: _281  and  ZN_938
REMARK  116  A    between atoms: _283  and  _284
REMARK  117  A    between atoms: _289  and  _291
REMARK  118  A    between atoms: _291  and  _292
REMARK  119  A    between atoms: _295  and  _297
REMARK  120  A    between atoms: _297  and  _298
REMARK  121  A    between atoms: _297  and  _300
REMARK  122  A    between atoms: _300  and  _301
REMARK  123  A    between atoms: _301  and  _302
REMARK  124  A    between atoms: _305  and  _307
REMARK  125  A    between atoms: _307  and  _308
REMARK  126  A    between atoms: _307  and  _310
REMARK  127  A    between atoms: _310  and  _311
REMARK  128  A    between atoms: _311  and  _312
REMARK  129  A    between atoms: _312  and  _314
REMARK  130  A    between atoms: _314  and  ZN_938
REMARK  131  A    between atoms: _315  and  _317
REMARK  132  A    between atoms: _317  and  _318
REMARK  133  A    between atoms: _317  and  _320
REMARK  134  A    between atoms: _320  and  _321
REMARK  135  A    between atoms: _327  and  _329
REMARK  136  A    between atoms: _329  and  _330
REMARK  137  A    between atoms: _332  and  _334
REMARK  138  A    between atoms: _334  and  _335
REMARK  139  A    between atoms: _334  and  _337
REMARK  140  A    between atoms: _337  and  _338
REMARK  141  A    between atoms: _341  and  _343
REMARK  142  A    between atoms: _343  and  _344
REMARK  143  A    between atoms: _343  and  _346
REMARK  144  A    between atoms: _346  and  _347
REMARK  145  A    between atoms: _350  and  _352
REMARK  146  A    between atoms: _352  and  _353
REMARK  147  A    between atoms: _352  and  _355
REMARK  148  A    between atoms: _355  and  _356
REMARK  149  A    between atoms: _361  and  _363
REMARK  150  A    between atoms: _363  and  _364
REMARK  151  A    between atoms: _363  and  _366
REMARK  152  A    between atoms: _366  and  _367
REMARK  153  A    between atoms: _367  and  _369
REMARK  154  A    between atoms: _369  and  ZN_939
REMARK  155  A    between atoms: _370  and  _372
REMARK  156  A    between atoms: _372  and  _373
REMARK  157  A    between atoms: _372  and  _375
REMARK  158  A    between atoms: _375  and  _376
REMARK  159  A    between atoms: _378  and  _380
REMARK  160  A    between atoms: _380  and  _381
REMARK  161  A    between atoms: _380  and  _383
REMARK  162  A    between atoms: _383  and  _384
REMARK  163  A    between atoms: _386  and  _388
REMARK  164  A    between atoms: _388  and  _389
REMARK  165  A    between atoms: _388  and  _391
REMARK  166  A    between atoms: _391  and  _392
REMARK  167  A    between atoms: _395  and  _397
REMARK  168  A    between atoms: _397  and  _398
REMARK  169  A    between atoms: _397  and  _400
REMARK  170  A    between atoms: _400  and  _401
REMARK  171  A    between atoms: _401  and  _402
REMARK  172  A    between atoms: _405  and  _407
REMARK  173  A    between atoms: _407  and  _408
REMARK  174  A    between atoms: _407  and  _410
REMARK  175  A    between atoms: _410  and  _411
REMARK  176  A    between atoms: _416  and  _417
REMARK  177  A    between atoms: _419  and  _421
REMARK  178  A    between atoms: _421  and  _422
REMARK  179  A    between atoms: _421  and  _424
REMARK  180  A    between atoms: _424  and  _425
REMARK  181  A    between atoms: _428  and  _430
REMARK  182  A    between atoms: _430  and  _431
REMARK  183  A    between atoms: _430  and  _433
REMARK  184  A    between atoms: _433  and  _434
REMARK  185  A    between atoms: _437  and  _439
REMARK  186  A    between atoms: _439  and  _440
REMARK  187  A    between atoms: _439  and  _442
REMARK  188  A    between atoms: _442  and  _443
REMARK  189  A    between atoms: _443  and  _444
REMARK  190  A    between atoms: _444  and  _445
REMARK  191  A    between atoms: _454  and  _456
REMARK  192  A    between atoms: _456  and  _457
REMARK  193  A    between atoms: _456  and  _459
REMARK  194  A    between atoms: _462  and  _464
REMARK  195  A    between atoms: _464  and  _465
REMARK  196  A    between atoms: _464  and  _467
REMARK  197  A    between atoms: _467  and  _468
REMARK  198  A    between atoms: _471  and  _473
REMARK  199  A    between atoms: _473  and  _474
REMARK  200  A    between atoms: _473  and  _476
REMARK  201  A    between atoms: _476  and  _477
REMARK  202  A    between atoms: _487  and  _489
REMARK  203  A    between atoms: _489  and  _490
REMARK  204  A    between atoms: _489  and  _492
REMARK  205  A    between atoms: _492  and  _493
REMARK  206  A    between atoms: _493  and  _494
REMARK  207  A    between atoms: _494  and  _495
REMARK  208  A    between atoms: _495  and  _496
REMARK  209  A    between atoms: _500  and  _502
REMARK  210  A    between atoms: _502  and  _503
REMARK  211  A    between atoms: _502  and  _505
REMARK  212  A    between atoms: _505  and  _506
REMARK  213  A    between atoms: _509  and  _510
REMARK  214  A    between atoms: _516  and  _517
REMARK  215  A    between atoms: _522  and  _524
REMARK  216  A    between atoms: _524  and  _525
REMARK  217  A    between atoms: _524  and  _527
REMARK  218  A    between atoms: _527  and  _528
REMARK  219  A    between atoms: _528  and  _529
REMARK  220  A    between atoms: _529  and  _530
REMARK  221  A    between atoms: _539  and  _541
REMARK  222  A    between atoms: _541  and  _542
REMARK  223  A    between atoms: _541  and  _544
REMARK  224  A    between atoms: _544  and  _545
REMARK  225  A    between atoms: _548  and  _550
REMARK  226  A    between atoms: _550  and  _551
REMARK  227  A    between atoms: _550  and  _553
REMARK  228  A    between atoms: _553  and  _554
REMARK  229  A    between atoms: _556  and  _558
REMARK  230  A    between atoms: _558  and  _559
REMARK  231  A    between atoms: _558  and  _561
REMARK  232  A    between atoms: _561  and  _562
REMARK  233  A    between atoms: _562  and  _563
REMARK  234  A    between atoms: _563  and  _564
REMARK  235  A    between atoms: _564  and  _565
REMARK  236  A    between atoms: _569  and  _571
REMARK  237  A    between atoms: _571  and  _572
REMARK  238  A    between atoms: _571  and  _574
REMARK  239  A    between atoms: _574  and  _575
REMARK  240  A    between atoms: _578  and  _580
REMARK  241  A    between atoms: _580  and  _581
REMARK  242  A    between atoms: _583  and  _585
REMARK  243  A    between atoms: _585  and  _586
REMARK  244  A    between atoms: _585  and  _588
REMARK  245  A    between atoms: _588  and  _589
REMARK  246  A    between atoms: _591  and  _593
REMARK  247  A    between atoms: _593  and  _594
REMARK  248  A    between atoms: _596  and  _598
REMARK  249  A    between atoms: _598  and  _599
REMARK  250  A    between atoms: _598  and  _601
REMARK  251  A    between atoms: _601  and  _602
REMARK  252  A    between atoms: _607  and  _609
REMARK  253  A    between atoms: _609  and  _610
REMARK  254  A    between atoms: _609  and  _612
REMARK  255  A    between atoms: _612  and  _613
REMARK  256  A    between atoms: _616  and  _618
REMARK  257  A    between atoms: _618  and  _619
REMARK  258  A    between atoms: _618  and  _621
REMARK  259  A    between atoms: _621  and  _622
REMARK  260  A    between atoms: _628  and  _630
REMARK  261  A    between atoms: _630  and  _631
REMARK  262  A    between atoms: _630  and  _633
REMARK  263  A    between atoms: _633  and  _634
REMARK  264  A    between atoms: _634  and  _635
REMARK  265  A    between atoms: _638  and  _640
REMARK  266  A    between atoms: _640  and  _641
REMARK  267  A    between atoms: _640  and  _643
REMARK  268  A    between atoms: _643  and  _644
REMARK  269  A    between atoms: _644  and  _645
REMARK  270  A    between atoms: _645  and  _646
REMARK  271  A    between atoms: _655  and  _657
REMARK  272  A    between atoms: _657  and  _658
REMARK  273  A    between atoms: _657  and  _660
REMARK  274  A    between atoms: _660  and  _661
REMARK  275  A    between atoms: _661  and  _662
REMARK  276  A    between atoms: _662  and  _663
REMARK  277  A    between atoms: _672  and  _674
REMARK  278  A    between atoms: _674  and  _675
REMARK  279  A    between atoms: _674  and  _677
REMARK  280  A    between atoms: _677  and  _678
REMARK  281  A    between atoms: _683  and  _684
REMARK  282  A    between atoms: _686  and  _688
REMARK  283  A    between atoms: _688  and  _689
REMARK  284  A    between atoms: _688  and  _691
REMARK  285  A    between atoms: _691  and  _692
REMARK  286  A    between atoms: _695  and  _697
REMARK  287  A    between atoms: _697  and  _698
REMARK  288  A    between atoms: _697  and  _700
REMARK  289  A    between atoms: _700  and  _701
REMARK  290  A    between atoms: _701  and  _702
REMARK  291  A    between atoms: _702  and  _703
REMARK  292  A    between atoms: _703  and  _704
REMARK  293  A    between atoms: _708  and  _710
REMARK  294  A    between atoms: _710  and  _711
REMARK  295  A    between atoms: _710  and  _713
REMARK  296  A    between atoms: _713  and  _714
REMARK  297  A    between atoms: _719  and  _721
REMARK  298  A    between atoms: _721  and  _722
REMARK  299  A    between atoms: _721  and  _724
REMARK  300  A    between atoms: _724  and  _725
REMARK  301  A    between atoms: _735  and  _737
REMARK  302  A    between atoms: _737  and  _738
REMARK  303  A    between atoms: _737  and  _740
REMARK  304  A    between atoms: _740  and  _741
REMARK  305  A    between atoms: _741  and  _742
REMARK  306  A    between atoms: _745  and  _747
REMARK  307  A    between atoms: _747  and  _748
REMARK  308  A    between atoms: _747  and  _750
REMARK  309  A    between atoms: _750  and  _751
REMARK  310  A    between atoms: _754  and  _756
REMARK  311  A    between atoms: _756  and  _757
REMARK  312  A    between atoms: _756  and  _759
REMARK  313  A    between atoms: _759  and  _760
REMARK  314  A    between atoms: _765  and  _767
REMARK  315  A    between atoms: _767  and  _768
REMARK  316  A    between atoms: _767  and  _770
REMARK  317  A    between atoms: _770  and  _771
REMARK  318  A    between atoms: _777  and  _779
REMARK  319  A    between atoms: _779  and  _780
REMARK  320  A    between atoms: _779  and  _782
REMARK  321  A    between atoms: _782  and  _783
REMARK  322  A    between atoms: _785  and  _787
REMARK  323  A    between atoms: _787  and  _788
REMARK  324  A    between atoms: _790  and  _792
REMARK  325  A    between atoms: _792  and  _793
REMARK  326  A    between atoms: _792  and  _795
REMARK  327  A    between atoms: _795  and  _796
REMARK  328  A    between atoms: _801  and  _802
REMARK  329  A    between atoms: _804  and  _806
REMARK  330  A    between atoms: _806  and  _807
REMARK  331  A    between atoms: _806  and  _809
REMARK  332  A    between atoms: _809  and  _810
REMARK  333  A    between atoms: _815  and  _816
REMARK  334  A    between atoms: _818  and  _820
REMARK  335  A    between atoms: _820  and  _821
REMARK  336  A    between atoms: _820  and  _823
REMARK  337  A    between atoms: _823  and  _824
REMARK  338  A    between atoms: _828  and  ZN_938
REMARK  339  A    between atoms: _829  and  _831
REMARK  340  A    between atoms: _831  and  _832
REMARK  341  A    between atoms: _831  and  _834
REMARK  342  A    between atoms: _834  and  _835
REMARK  343  A    between atoms: _835  and  _836
REMARK  344  A    between atoms: _839  and  _841
REMARK  345  A    between atoms: _841  and  _842
REMARK  346  A    between atoms: _841  and  _844
REMARK  347  A    between atoms: _844  and  _845
REMARK  348  A    between atoms: _845  and  _846
REMARK  349  A    between atoms: _846  and  _847
REMARK  350  A    between atoms: _856  and  _858
REMARK  351  A    between atoms: _858  and  _859
REMARK  352  A    between atoms: _858  and  _861
REMARK  353  A    between atoms: _861  and  _862
REMARK  354  A    between atoms: _867  and  _868
REMARK  355  A    between atoms: _870  and  _872
REMARK  356  A    between atoms: _872  and  _873
REMARK  357  A    between atoms: _872  and  _875
REMARK  358  A    between atoms: _875  and  _876
REMARK  359  A    between atoms: _878  and  _880
REMARK  360  A    between atoms: _880  and  _881
REMARK  361  A    between atoms: _880  and  _883
REMARK  362  A    between atoms: _883  and  _884
REMARK  363  A    between atoms: _889  and  _891
REMARK  364  A    between atoms: _891  and  _892
REMARK  365  A    between atoms: _891  and  _894
REMARK  366  A    between atoms: _894  and  _895
REMARK  367  A    between atoms: _900  and  _902
REMARK  368  A    between atoms: _902  and  _903
REMARK  369  A    between atoms: _902  and  _905
REMARK  370  A    between atoms: _905  and  _906
REMARK  371  A    between atoms: _906  and  _907
REMARK  372  A    between atoms: _907  and  _908
REMARK  373  A    between atoms: _908  and  _909
REMARK  374  A    between atoms: _913  and  _915
REMARK  375  A    between atoms: _915  and  _916
REMARK  376  A    between atoms: _915  and  _918
REMARK  377  A    between atoms: _918  and  _919
REMARK  378  A    between atoms: _924  and  _925
REMARK  379  A    between atoms: _927  and  _929
REMARK  380  A    between atoms: _929  and  _930
REMARK  381  A    between atoms: _933  and  _935
REMARK  382  A    between atoms: _935  and  _936
REMARK                            x       y       z     vdW  Elec       q    Type
REMARK                         _______ _______ _______ _____ _____    ______ ____
ROOT
ATOM      1  O   HOH     1      28.920  47.129  45.700  0.00  0.00    +0.000 OA
ENDROOT
TORSDOF 0
REMARK  Name = ../refined-set-2016/2xeg/2xeg_pocket.pdb
REMARK  382 active torsions:
REMARK  status: ('A' for Active; 'I' for Inactive)
REMARK    1  A    between atoms: _1  and  _3
REMARK    2  A    between atoms: _3  and  _4
REMARK    3  A    between atoms: _7  and  _9
REMARK    4  A    between atoms: _9  and  _10
REMARK    5  A    between atoms: _9  and  _12
REMARK    6  A    between atoms: _12  and  _13
REMARK    7  A    between atoms: _19  and  _21
REMARK    8  A    between atoms: _21  and  _22
REMARK    9  A    between atoms: _21  and  _24
REMARK   10  A    between atoms: _24  and  _25
REMARK   11  A    between atoms: _30  and  _31
REMARK   12  A    between atoms: _33  and  _35
REMARK   13  A    between atoms: _35  and  _36
REMARK   14  A    between atoms: _38  and  _40
REMARK   15  A    between atoms: _40  and  _41
REMARK   16  A    between atoms: _40  and  _43
REMARK   17  A    between atoms: _43  and  _44
REMARK   18  A    between atoms: _44  and  _45
REMARK   19  A    between atoms: _45  and  _46
REMARK   20  A    between atoms: _46  and  _47
REMARK   21  A    between atoms: _51  and  _53
REMARK   22  A    between atoms: _53  and  _54
REMARK   23  A    between atoms: _53  and  _56
REMARK   24  A    between atoms: _59  and  _61
REMARK   25  A    between atoms: _61  and  _62
REMARK   26  A    between atoms: _61  and  _64
REMARK   27  A    between atoms: _64  and  _65
REMARK   28  A    between atoms: _71  and  _73
REMARK   29  A    between atoms: _73  and  _74
REMARK   30  A    between atoms: _73  and  _76
REMARK   31  A    between atoms: _76  and  _77
REMARK   32  A    between atoms: _77  and  _78
REMARK   33  A    between atoms: _78  and  _79
REMARK   34  A    between atoms: _88  and  _90
REMARK   35  A    between atoms: _90  and  _91
REMARK   36  A    between atoms: _93  and  _95
REMARK   37  A    between atoms: _95  and  _96
REMARK   38  A    between atoms: _95  and  _98
REMARK   39  A    between atoms: _98  and  _99
REMARK   40  A    between atoms: _99  and  _100
REMARK   41  A    between atoms: _100  and  _101
REMARK   42  A    between atoms: _101  and  _102
REMARK   43  A    between atoms: _106  and  _108
REMARK   44  A    between atoms: _108  and  _109
REMARK   45  A    between atoms: _108  and  _111
REMARK   46  A    between atoms: _111  and  _112
REMARK   47  A    between atoms: _115  and  _117
REMARK   48  A    between atoms: _117  and  _118
REMARK   49  A    between atoms: _117  and  _120
REMARK   50  A    between atoms: _120  and  _121
REMARK   51  A    between atoms: _126  and  _127
REMARK   52  A    between atoms: _129  and  _131
REMARK   53  A    between atoms: _131  and  _132
REMARK   54  A    between atoms: _131  and  _134
REMARK   55  A    between atoms: _134  and  _135
REMARK   56  A    between atoms: _135  and  _136
REMARK   57  A    between atoms: _141  and  _143
REMARK   58  A    between atoms: _143  and  _144
REMARK   59  A    between atoms: _143  and  _146
REMARK   60  A    between atoms: _146  and  _147
REMARK   61  A    between atoms: _147  and  _148
REMARK   62  A    between atoms: _148  and  _149
REMARK   63  A    between atoms: _158  and  _160
REMARK   64  A    between atoms: _160  and  _161
REMARK   65  A    between atoms: _163  and  _165
REMARK   66  A    between atoms: _165  and  _166
REMARK   67  A    between atoms: _165  and  _168
REMARK   68  A    between atoms: _168  and  _169
REMARK   69  A    between atoms: _174  and  _176
REMARK   70  A    between atoms: _176  and  _177
REMARK   71  A    between atoms: _176  and  _179
REMARK   72  A    between atoms: _179  and  _180
REMARK   73  A    between atoms: _183  and  _185
REMARK   74  A    between atoms: _185  and  _186
REMARK   75  A    between atoms: _185  and  _188
REMARK   76  A    between atoms: _188  and  _189
REMARK   77  A    between atoms: _192  and  _194
REMARK   78  A    between atoms: _194  and  _195
REMARK   79  A    between atoms: _194  and  _197
REMARK   80  A    between atoms: _197  and  _198
REMARK   81  A    between atoms: _203  and  _205
REMARK   82  A    between atoms: _205  and  _206
REMARK   83  A    between atoms: _205  and  _208
REMARK   84  A    between atoms: _208  and  _209
REMARK   85  A    between atoms: _212  and  _214
REMARK   86  A    between atoms: _214  and  _215
REMARK   87  A    between atoms: _214  and  _217
REMARK   88  A    between atoms: _217  and  _218
REMARK   89  A    between atoms: _223  and  _225
REMARK   90  A    between atoms: _225  and  _226
REMARK   91  A    between atoms: _228  and  _230
REMARK   92  A    between atoms: _230  and  _231
REMARK   93  A    between atoms: _230  and  _233
REMARK   94  A    between atoms: _233  and  _234
REMARK   95  A    between atoms: _238  and  ZN_939
REMARK   96  A    between atoms: _239  and  _241
REMARK   97  A    between atoms: _241  and  _242
REMARK   98  A    between atoms: _241  and  _244
REMARK   99  A    between atoms: _244  and  _245
REMARK  100  A    between atoms: _248  and  _250
REMARK  101  A    between atoms: _250  and  _251
REMARK  102  A    between atoms: _250  and  _253
REMARK  103  A    between atoms: _253  and  _254
REMARK  104  A    between atoms: _264  and  _266
REMARK  105  A    between atoms: _266  and  _267
REMARK  106  A    between atoms: _266  and  _269
REMARK  107  A    between atoms: _269  and  _270
REMARK  108  A    between atoms: _273  and  _275
REMARK  109  A    between atoms: _275  and  _276
REMARK  110  A    between atoms: _275  and  _278
REMARK  111  A    between atoms: _278  and  _279
REMARK  112  A    between atoms: _279  and  _280
REMARK  113  A    between atoms: _279  and  _281
REMARK  114  A    between atoms: _280  and  ZN_939
REMARK  115  A    between atoms: _281  and  ZN_938
REMARK  116  A    between atoms: _283  and  _284
REMARK  117  A    between atoms: _289  and  _291
REMARK  118  A    between atoms: _291  and  _292
REMARK  119  A    between atoms: _295  and  _297
REMARK  120  A    between atoms: _297  and  _298
REMARK  121  A    between atoms: _297  and  _300
REMARK  122  A    between atoms: _300  and  _301
REMARK  123  A    between atoms: _301  and  _302
REMARK  124  A    between atoms: _305  and  _307
REMARK  125  A    between atoms: _307  and  _308
REMARK  126  A    between atoms: _307  and  _310
REMARK  127  A    between atoms: _310  and  _311
REMARK  128  A    between atoms: _311  and  _312
REMARK  129  A    between atoms: _312  and  _314
REMARK  130  A    between atoms: _314  and  ZN_938
REMARK  131  A    between atoms: _315  and  _317
REMARK  132  A    between atoms: _317  and  _318
REMARK  133  A    between atoms: _317  and  _320
REMARK  134  A    between atoms: _320  and  _321
REMARK  135  A    between atoms: _327  and  _329
REMARK  136  A    between atoms: _329  and  _330
REMARK  137  A    between atoms: _332  and  _334
REMARK  138  A    between atoms: _334  and  _335
REMARK  139  A    between atoms: _334  and  _337
REMARK  140  A    between atoms: _337  and  _338
REMARK  141  A    between atoms: _341  and  _343
REMARK  142  A    between atoms: _343  and  _344
REMARK  143  A    between atoms: _343  and  _346
REMARK  144  A    between atoms: _346  and  _347
REMARK  145  A    between atoms: _350  and  _352
REMARK  146  A    between atoms: _352  and  _353
REMARK  147  A    between atoms: _352  and  _355
REMARK  148  A    between atoms: _355  and  _356
REMARK  149  A    between atoms: _361  and  _363
REMARK  150  A    between atoms: _363  and  _364
REMARK  151  A    between atoms: _363  and  _366
REMARK  152  A    between atoms: _366  and  _367
REMARK  153  A    between atoms: _367  and  _369
REMARK  154  A    between atoms: _369  and  ZN_939
REMARK  155  A    between atoms: _370  and  _372
REMARK  156  A    between atoms: _372  and  _373
REMARK  157  A    between atoms: _372  and  _375
REMARK  158  A    between atoms: _375  and  _376
REMARK  159  A    between atoms: _378  and  _380
REMARK  160  A    between atoms: _380  and  _381
REMARK  161  A    between atoms: _380  and  _383
REMARK  162  A    between atoms: _383  and  _384
REMARK  163  A    between atoms: _386  and  _388
REMARK  164  A    between atoms: _388  and  _389
REMARK  165  A    between atoms: _388  and  _391
REMARK  166  A    between atoms: _391  and  _392
REMARK  167  A    between atoms: _395  and  _397
REMARK  168  A    between atoms: _397  and  _398
REMARK  169  A    between atoms: _397  and  _400
REMARK  170  A    between atoms: _400  and  _401
REMARK  171  A    between atoms: _401  and  _402
REMARK  172  A    between atoms: _405  and  _407
REMARK  173  A    between atoms: _407  and  _408
REMARK  174  A    between atoms: _407  and  _410
REMARK  175  A    between atoms: _410  and  _411
REMARK  176  A    between atoms: _416  and  _417
REMARK  177  A    between atoms: _419  and  _421
REMARK  178  A    between atoms: _421  and  _422
REMARK  179  A    between atoms: _421  and  _424
REMARK  180  A    between atoms: _424  and  _425
REMARK  181  A    between atoms: _428  and  _430
REMARK  182  A    between atoms: _430  and  _431
REMARK  183  A    between atoms: _430  and  _433
REMARK  184  A    between atoms: _433  and  _434
REMARK  185  A    between atoms: _437  and  _439
REMARK  186  A    between atoms: _439  and  _440
REMARK  187  A    between atoms: _439  and  _442
REMARK  188  A    between atoms: _442  and  _443
REMARK  189  A    between atoms: _443  and  _444
REMARK  190  A    between atoms: _444  and  _445
REMARK  191  A    between atoms: _454  and  _456
REMARK  192  A    between atoms: _456  and  _457
REMARK  193  A    between atoms: _456  and  _459
REMARK  194  A    between atoms: _462  and  _464
REMARK  195  A    between atoms: _464  and  _465
REMARK  196  A    between atoms: _464  and  _467
REMARK  197  A    between atoms: _467  and  _468
REMARK  198  A    between atoms: _471  and  _473
REMARK  199  A    between atoms: _473  and  _474
REMARK  200  A    between atoms: _473  and  _476
REMARK  201  A    between atoms: _476  and  _477
REMARK  202  A    between atoms: _487  and  _489
REMARK  203  A    between atoms: _489  and  _490
REMARK  204  A    between atoms: _489  and  _492
REMARK  205  A    between atoms: _492  and  _493
REMARK  206  A    between atoms: _493  and  _494
REMARK  207  A    between atoms: _494  and  _495
REMARK  208  A    between atoms: _495  and  _496
REMARK  209  A    between atoms: _500  and  _502
REMARK  210  A    between atoms: _502  and  _503
REMARK  211  A    between atoms: _502  and  _505
REMARK  212  A    between atoms: _505  and  _506
REMARK  213  A    between atoms: _509  and  _510
REMARK  214  A    between atoms: _516  and  _517
REMARK  215  A    between atoms: _522  and  _524
REMARK  216  A    between atoms: _524  and  _525
REMARK  217  A    between atoms: _524  and  _527
REMARK  218  A    between atoms: _527  and  _528
REMARK  219  A    between atoms: _528  and  _529
REMARK  220  A    between atoms: _529  and  _530
REMARK  221  A    between atoms: _539  and  _541
REMARK  222  A    between atoms: _541  and  _542
REMARK  223  A    between atoms: _541  and  _544
REMARK  224  A    between atoms: _544  and  _545
REMARK  225  A    between atoms: _548  and  _550
REMARK  226  A    between atoms: _550  and  _551
REMARK  227  A    between atoms: _550  and  _553
REMARK  228  A    between atoms: _553  and  _554
REMARK  229  A    between atoms: _556  and  _558
REMARK  230  A    between atoms: _558  and  _559
REMARK  231  A    between atoms: _558  and  _561
REMARK  232  A    between atoms: _561  and  _562
REMARK  233  A    between atoms: _562  and  _563
REMARK  234  A    between atoms: _563  and  _564
REMARK  235  A    between atoms: _564  and  _565
REMARK  236  A    between atoms: _569  and  _571
REMARK  237  A    between atoms: _571  and  _572
REMARK  238  A    between atoms: _571  and  _574
REMARK  239  A    between atoms: _574  and  _575
REMARK  240  A    between atoms: _578  and  _580
REMARK  241  A    between atoms: _580  and  _581
REMARK  242  A    between atoms: _583  and  _585
REMARK  243  A    between atoms: _585  and  _586
REMARK  244  A    between atoms: _585  and  _588
REMARK  245  A    between atoms: _588  and  _589
REMARK  246  A    between atoms: _591  and  _593
REMARK  247  A    between atoms: _593  and  _594
REMARK  248  A    between atoms: _596  and  _598
REMARK  249  A    between atoms: _598  and  _599
REMARK  250  A    between atoms: _598  and  _601
REMARK  251  A    between atoms: _601  and  _602
REMARK  252  A    between atoms: _607  and  _609
REMARK  253  A    between atoms: _609  and  _610
REMARK  254  A    between atoms: _609  and  _612
REMARK  255  A    between atoms: _612  and  _613
REMARK  256  A    between atoms: _616  and  _618
REMARK  257  A    between atoms: _618  and  _619
REMARK  258  A    between atoms: _618  and  _621
REMARK  259  A    between atoms: _621  and  _622
REMARK  260  A    between atoms: _628  and  _630
REMARK  261  A    between atoms: _630  and  _631
REMARK  262  A    between atoms: _630  and  _633
REMARK  263  A    between atoms: _633  and  _634
REMARK  264  A    between atoms: _634  and  _635
REMARK  265  A    between atoms: _638  and  _640
REMARK  266  A    between atoms: _640  and  _641
REMARK  267  A    between atoms: _640  and  _643
REMARK  268  A    between atoms: _643  and  _644
REMARK  269  A    between atoms: _644  and  _645
REMARK  270  A    between atoms: _645  and  _646
REMARK  271  A    between atoms: _655  and  _657
REMARK  272  A    between atoms: _657  and  _658
REMARK  273  A    between atoms: _657  and  _660
REMARK  274  A    between atoms: _660  and  _661
REMARK  275  A    between atoms: _661  and  _662
REMARK  276  A    between atoms: _662  and  _663
REMARK  277  A    between atoms: _672  and  _674
REMARK  278  A    between atoms: _674  and  _675
REMARK  279  A    between atoms: _674  and  _677
REMARK  280  A    between atoms: _677  and  _678
REMARK  281  A    between atoms: _683  and  _684
REMARK  282  A    between atoms: _686  and  _688
REMARK  283  A    between atoms: _688  and  _689
REMARK  284  A    between atoms: _688  and  _691
REMARK  285  A    between atoms: _691  and  _692
REMARK  286  A    between atoms: _695  and  _697
REMARK  287  A    between atoms: _697  and  _698
REMARK  288  A    between atoms: _697  and  _700
REMARK  289  A    between atoms: _700  and  _701
REMARK  290  A    between atoms: _701  and  _702
REMARK  291  A    between atoms: _702  and  _703
REMARK  292  A    between atoms: _703  and  _704
REMARK  293  A    between atoms: _708  and  _710
REMARK  294  A    between atoms: _710  and  _711
REMARK  295  A    between atoms: _710  and  _713
REMARK  296  A    between atoms: _713  and  _714
REMARK  297  A    between atoms: _719  and  _721
REMARK  298  A    between atoms: _721  and  _722
REMARK  299  A    between atoms: _721  and  _724
REMARK  300  A    between atoms: _724  and  _725
REMARK  301  A    between atoms: _735  and  _737
REMARK  302  A    between atoms: _737  and  _738
REMARK  303  A    between atoms: _737  and  _740
REMARK  304  A    between atoms: _740  and  _741
REMARK  305  A    between atoms: _741  and  _742
REMARK  306  A    between atoms: _745  and  _747
REMARK  307  A    between atoms: _747  and  _748
REMARK  308  A    between atoms: _747  and  _750
REMARK  309  A    between atoms: _750  and  _751
REMARK  310  A    between atoms: _754  and  _756
REMARK  311  A    between atoms: _756  and  _757
REMARK  312  A    between atoms: _756  and  _759
REMARK  313  A    between atoms: _759  and  _760
REMARK  314  A    between atoms: _765  and  _767
REMARK  315  A    between atoms: _767  and  _768
REMARK  316  A    between atoms: _767  and  _770
REMARK  317  A    between atoms: _770  and  _771
REMARK  318  A    between atoms: _777  and  _779
REMARK  319  A    between atoms: _779  and  _780
REMARK  320  A    between atoms: _779  and  _782
REMARK  321  A    between atoms: _782  and  _783
REMARK  322  A    between atoms: _785  and  _787
REMARK  323  A    between atoms: _787  and  _788
REMARK  324  A    between atoms: _790  and  _792
REMARK  325  A    between atoms: _792  and  _793
REMARK  326  A    between atoms: _792  and  _795
REMARK  327  A    between atoms: _795  and  _796
REMARK  328  A    between atoms: _801  and  _802
REMARK  329  A    between atoms: _804  and  _806
REMARK  330  A    between atoms: _806  and  _807
REMARK  331  A    between atoms: _806  and  _809
REMARK  332  A    between atoms: _809  and  _810
REMARK  333  A    between atoms: _815  and  _816
REMARK  334  A    between atoms: _818  and  _820
REMARK  335  A    between atoms: _820  and  _821
REMARK  336  A    between atoms: _820  and  _823
REMARK  337  A    between atoms: _823  and  _824
REMARK  338  A    between atoms: _828  and  ZN_938
REMARK  339  A    between atoms: _829  and  _831
REMARK  340  A    between atoms: _831  and  _832
REMARK  341  A    between atoms: _831  and  _834
REMARK  342  A    between atoms: _834  and  _835
REMARK  343  A    between atoms: _835  and  _836
REMARK  344  A    between atoms: _839  and  _841
REMARK  345  A    between atoms: _841  and  _842
REMARK  346  A    between atoms: _841  and  _844
REMARK  347  A    between atoms: _844  and  _845
REMARK  348  A    between atoms: _845  and  _846
REMARK  349  A    between atoms: _846  and  _847
REMARK  350  A    between atoms: _856  and  _858
REMARK  351  A    between atoms: _858  and  _859
REMARK  352  A    between atoms: _858  and  _861
REMARK  353  A    between atoms: _861  and  _862
REMARK  354  A    between atoms: _867  and  _868
REMARK  355  A    between atoms: _870  and  _872
REMARK  356  A    between atoms: _872  and  _873
REMARK  357  A    between atoms: _872  and  _875
REMARK  358  A    between atoms: _875  and  _876
REMARK  359  A    between atoms: _878  and  _880
REMARK  360  A    between atoms: _880  and  _881
REMARK  361  A    between atoms: _880  and  _883
REMARK  362  A    between atoms: _883  and  _884
REMARK  363  A    between atoms: _889  and  _891
REMARK  364  A    between atoms: _891  and  _892
REMARK  365  A    between atoms: _891  and  _894
REMARK  366  A    between atoms: _894  and  _895
REMARK  367  A    between atoms: _900  and  _902
REMARK  368  A    between atoms: _902  and  _903
REMARK  369  A    between atoms: _902  and  _905
REMARK  370  A    between atoms: _905  and  _906
REMARK  371  A    between atoms: _906  and  _907
REMARK  372  A    between atoms: _907  and  _908
REMARK  373  A    between atoms: _908  and  _909
REMARK  374  A    between atoms: _913  and  _915
REMARK  375  A    between atoms: _915  and  _916
REMARK  376  A    between atoms: _915  and  _918
REMARK  377  A    between atoms: _918  and  _919
REMARK  378  A    between atoms: _924  and  _925
REMARK  379  A    between atoms: _927  and  _929
REMARK  380  A    between atoms: _929  and  _930
REMARK  381  A    between atoms: _933  and  _935
REMARK  382  A    between atoms: _935  and  _936
REMARK                            x       y       z     vdW  Elec       q    Type
REMARK                         _______ _______ _______ _____ _____    ______ ____
ROOT
ATOM      1  O   HOH     1      39.587  50.701  52.347  0.00  0.00    +0.000 OA
ENDROOT
TORSDOF 0
REMARK  Name = ../refined-set-2016/2xeg/2xeg_pocket.pdb
REMARK  382 active torsions:
REMARK  status: ('A' for Active; 'I' for Inactive)
REMARK    1  A    between atoms: _1  and  _3
REMARK    2  A    between atoms: _3  and  _4
REMARK    3  A    between atoms: _7  and  _9
REMARK    4  A    between atoms: _9  and  _10
REMARK    5  A    between atoms: _9  and  _12
REMARK    6  A    between atoms: _12  and  _13
REMARK    7  A    between atoms: _19  and  _21
REMARK    8  A    between atoms: _21  and  _22
REMARK    9  A    between atoms: _21  and  _24
REMARK   10  A    between atoms: _24  and  _25
REMARK   11  A    between atoms: _30  and  _31
REMARK   12  A    between atoms: _33  and  _35
REMARK   13  A    between atoms: _35  and  _36
REMARK   14  A    between atoms: _38  and  _40
REMARK   15  A    between atoms: _40  and  _41
REMARK   16  A    between atoms: _40  and  _43
REMARK   17  A    between atoms: _43  and  _44
REMARK   18  A    between atoms: _44  and  _45
REMARK   19  A    between atoms: _45  and  _46
REMARK   20  A    between atoms: _46  and  _47
REMARK   21  A    between atoms: _51  and  _53
REMARK   22  A    between atoms: _53  and  _54
REMARK   23  A    between atoms: _53  and  _56
REMARK   24  A    between atoms: _59  and  _61
REMARK   25  A    between atoms: _61  and  _62
REMARK   26  A    between atoms: _61  and  _64
REMARK   27  A    between atoms: _64  and  _65
REMARK   28  A    between atoms: _71  and  _73
REMARK   29  A    between atoms: _73  and  _74
REMARK   30  A    between atoms: _73  and  _76
REMARK   31  A    between atoms: _76  and  _77
REMARK   32  A    between atoms: _77  and  _78
REMARK   33  A    between atoms: _78  and  _79
REMARK   34  A    between atoms: _88  and  _90
REMARK   35  A    between atoms: _90  and  _91
REMARK   36  A    between atoms: _93  and  _95
REMARK   37  A    between atoms: _95  and  _96
REMARK   38  A    between atoms: _95  and  _98
REMARK   39  A    between atoms: _98  and  _99
REMARK   40  A    between atoms: _99  and  _100
REMARK   41  A    between atoms: _100  and  _101
REMARK   42  A    between atoms: _101  and  _102
REMARK   43  A    between atoms: _106  and  _108
REMARK   44  A    between atoms: _108  and  _109
REMARK   45  A    between atoms: _108  and  _111
REMARK   46  A    between atoms: _111  and  _112
REMARK   47  A    between atoms: _115  and  _117
REMARK   48  A    between atoms: _117  and  _118
REMARK   49  A    between atoms: _117  and  _120
REMARK   50  A    between atoms: _120  and  _121
REMARK   51  A    between atoms: _126  and  _127
REMARK   52  A    between atoms: _129  and  _131
REMARK   53  A    between atoms: _131  and  _132
REMARK   54  A    between atoms: _131  and  _134
REMARK   55  A    between atoms: _134  and  _135
REMARK   56  A    between atoms: _135  and  _136
REMARK   57  A    between atoms: _141  and  _143
REMARK   58  A    between atoms: _143  and  _144
REMARK   59  A    between atoms: _143  and  _146
REMARK   60  A    between atoms: _146  and  _147
REMARK   61  A    between atoms: _147  and  _148
REMARK   62  A    between atoms: _148  and  _149
REMARK   63  A    between atoms: _158  and  _160
REMARK   64  A    between atoms: _160  and  _161
REMARK   65  A    between atoms: _163  and  _165
REMARK   66  A    between atoms: _165  and  _166
REMARK   67  A    between atoms: _165  and  _168
REMARK   68  A    between atoms: _168  and  _169
REMARK   69  A    between atoms: _174  and  _176
REMARK   70  A    between atoms: _176  and  _177
REMARK   71  A    between atoms: _176  and  _179
REMARK   72  A    between atoms: _179  and  _180
REMARK   73  A    between atoms: _183  and  _185
REMARK   74  A    between atoms: _185  and  _186
REMARK   75  A    between atoms: _185  and  _188
REMARK   76  A    between atoms: _188  and  _189
REMARK   77  A    between atoms: _192  and  _194
REMARK   78  A    between atoms: _194  and  _195
REMARK   79  A    between atoms: _194  and  _197
REMARK   80  A    between atoms: _197  and  _198
REMARK   81  A    between atoms: _203  and  _205
REMARK   82  A    between atoms: _205  and  _206
REMARK   83  A    between atoms: _205  and  _208
REMARK   84  A    between atoms: _208  and  _209
REMARK   85  A    between atoms: _212  and  _214
REMARK   86  A    between atoms: _214  and  _215
REMARK   87  A    between atoms: _214  and  _217
REMARK   88  A    between atoms: _217  and  _218
REMARK   89  A    between atoms: _223  and  _225
REMARK   90  A    between atoms: _225  and  _226
REMARK   91  A    between atoms: _228  and  _230
REMARK   92  A    between atoms: _230  and  _231
REMARK   93  A    between atoms: _230  and  _233
REMARK   94  A    between atoms: _233  and  _234
REMARK   95  A    between atoms: _238  and  ZN_939
REMARK   96  A    between atoms: _239  and  _241
REMARK   97  A    between atoms: _241  and  _242
REMARK   98  A    between atoms: _241  and  _244
REMARK   99  A    between atoms: _244  and  _245
REMARK  100  A    between atoms: _248  and  _250
REMARK  101  A    between atoms: _250  and  _251
REMARK  102  A    between atoms: _250  and  _253
REMARK  103  A    between atoms: _253  and  _254
REMARK  104  A    between atoms: _264  and  _266
REMARK  105  A    between atoms: _266  and  _267
REMARK  106  A    between atoms: _266  and  _269
REMARK  107  A    between atoms: _269  and  _270
REMARK  108  A    between atoms: _273  and  _275
REMARK  109  A    between atoms: _275  and  _276
REMARK  110  A    between atoms: _275  and  _278
REMARK  111  A    between atoms: _278  and  _279
REMARK  112  A    between atoms: _279  and  _280
REMARK  113  A    between atoms: _279  and  _281
REMARK  114  A    between atoms: _280  and  ZN_939
REMARK  115  A    between atoms: _281  and  ZN_938
REMARK  116  A    between atoms: _283  and  _284
REMARK  117  A    between atoms: _289  and  _291
REMARK  118  A    between atoms: _291  and  _292
REMARK  119  A    between atoms: _295  and  _297
REMARK  120  A    between atoms: _297  and  _298
REMARK  121  A    between atoms: _297  and  _300
REMARK  122  A    between atoms: _300  and  _301
REMARK  123  A    between atoms: _301  and  _302
REMARK  124  A    between atoms: _305  and  _307
REMARK  125  A    between atoms: _307  and  _308
REMARK  126  A    between atoms: _307  and  _310
REMARK  127  A    between atoms: _310  and  _311
REMARK  128  A    between atoms: _311  and  _312
REMARK  129  A    between atoms: _312  and  _314
REMARK  130  A    between atoms: _314  and  ZN_938
REMARK  131  A    between atoms: _315  and  _317
REMARK  132  A    between atoms: _317  and  _318
REMARK  133  A    between atoms: _317  and  _320
REMARK  134  A    between atoms: _320  and  _321
REMARK  135  A    between atoms: _327  and  _329
REMARK  136  A    between atoms: _329  and  _330
REMARK  137  A    between atoms: _332  and  _334
REMARK  138  A    between atoms: _334  and  _335
REMARK  139  A    between atoms: _334  and  _337
REMARK  140  A    between atoms: _337  and  _338
REMARK  141  A    between atoms: _341  and  _343
REMARK  142  A    between atoms: _343  and  _344
REMARK  143  A    between atoms: _343  and  _346
REMARK  144  A    between atoms: _346  and  _347
REMARK  145  A    between atoms: _350  and  _352
REMARK  146  A    between atoms: _352  and  _353
REMARK  147  A    between atoms: _352  and  _355
REMARK  148  A    between atoms: _355  and  _356
REMARK  149  A    between atoms: _361  and  _363
REMARK  150  A    between atoms: _363  and  _364
REMARK  151  A    between atoms: _363  and  _366
REMARK  152  A    between atoms: _366  and  _367
REMARK  153  A    between atoms: _367  and  _369
REMARK  154  A    between atoms: _369  and  ZN_939
REMARK  155  A    between atoms: _370  and  _372
REMARK  156  A    between atoms: _372  and  _373
REMARK  157  A    between atoms: _372  and  _375
REMARK  158  A    between atoms: _375  and  _376
REMARK  159  A    between atoms: _378  and  _380
REMARK  160  A    between atoms: _380  and  _381
REMARK  161  A    between atoms: _380  and  _383
REMARK  162  A    between atoms: _383  and  _384
REMARK  163  A    between atoms: _386  and  _388
REMARK  164  A    between atoms: _388  and  _389
REMARK  165  A    between atoms: _388  and  _391
REMARK  166  A    between atoms: _391  and  _392
REMARK  167  A    between atoms: _395  and  _397
REMARK  168  A    between atoms: _397  and  _398
REMARK  169  A    between atoms: _397  and  _400
REMARK  170  A    between atoms: _400  and  _401
REMARK  171  A    between atoms: _401  and  _402
REMARK  172  A    between atoms: _405  and  _407
REMARK  173  A    between atoms: _407  and  _408
REMARK  174  A    between atoms: _407  and  _410
REMARK  175  A    between atoms: _410  and  _411
REMARK  176  A    between atoms: _416  and  _417
REMARK  177  A    between atoms: _419  and  _421
REMARK  178  A    between atoms: _421  and  _422
REMARK  179  A    between atoms: _421  and  _424
REMARK  180  A    between atoms: _424  and  _425
REMARK  181  A    between atoms: _428  and  _430
REMARK  182  A    between atoms: _430  and  _431
REMARK  183  A    between atoms: _430  and  _433
REMARK  184  A    between atoms: _433  and  _434
REMARK  185  A    between atoms: _437  and  _439
REMARK  186  A    between atoms: _439  and  _440
REMARK  187  A    between atoms: _439  and  _442
REMARK  188  A    between atoms: _442  and  _443
REMARK  189  A    between atoms: _443  and  _444
REMARK  190  A    between atoms: _444  and  _445
REMARK  191  A    between atoms: _454  and  _456
REMARK  192  A    between atoms: _456  and  _457
REMARK  193  A    between atoms: _456  and  _459
REMARK  194  A    between atoms: _462  and  _464
REMARK  195  A    between atoms: _464  and  _465
REMARK  196  A    between atoms: _464  and  _467
REMARK  197  A    between atoms: _467  and  _468
REMARK  198  A    between atoms: _471  and  _473
REMARK  199  A    between atoms: _473  and  _474
REMARK  200  A    between atoms: _473  and  _476
REMARK  201  A    between atoms: _476  and  _477
REMARK  202  A    between atoms: _487  and  _489
REMARK  203  A    between atoms: _489  and  _490
REMARK  204  A    between atoms: _489  and  _492
REMARK  205  A    between atoms: _492  and  _493
REMARK  206  A    between atoms: _493  and  _494
REMARK  207  A    between atoms: _494  and  _495
REMARK  208  A    between atoms: _495  and  _496
REMARK  209  A    between atoms: _500  and  _502
REMARK  210  A    between atoms: _502  and  _503
REMARK  211  A    between atoms: _502  and  _505
REMARK  212  A    between atoms: _505  and  _506
REMARK  213  A    between atoms: _509  and  _510
REMARK  214  A    between atoms: _516  and  _517
REMARK  215  A    between atoms: _522  and  _524
REMARK  216  A    between atoms: _524  and  _525
REMARK  217  A    between atoms: _524  and  _527
REMARK  218  A    between atoms: _527  and  _528
REMARK  219  A    between atoms: _528  and  _529
REMARK  220  A    between atoms: _529  and  _530
REMARK  221  A    between atoms: _539  and  _541
REMARK  222  A    between atoms: _541  and  _542
REMARK  223  A    between atoms: _541  and  _544
REMARK  224  A    between atoms: _544  and  _545
REMARK  225  A    between atoms: _548  and  _550
REMARK  226  A    between atoms: _550  and  _551
REMARK  227  A    between atoms: _550  and  _553
REMARK  228  A    between atoms: _553  and  _554
REMARK  229  A    between atoms: _556  and  _558
REMARK  230  A    between atoms: _558  and  _559
REMARK  231  A    between atoms: _558  and  _561
REMARK  232  A    between atoms: _561  and  _562
REMARK  233  A    between atoms: _562  and  _563
REMARK  234  A    between atoms: _563  and  _564
REMARK  235  A    between atoms: _564  and  _565
REMARK  236  A    between atoms: _569  and  _571
REMARK  237  A    between atoms: _571  and  _572
REMARK  238  A    between atoms: _571  and  _574
REMARK  239  A    between atoms: _574  and  _575
REMARK  240  A    between atoms: _578  and  _580
REMARK  241  A    between atoms: _580  and  _581
REMARK  242  A    between atoms: _583  and  _585
REMARK  243  A    between atoms: _585  and  _586
REMARK  244  A    between atoms: _585  and  _588
REMARK  245  A    between atoms: _588  and  _589
REMARK  246  A    between atoms: _591  and  _593
REMARK  247  A    between atoms: _593  and  _594
REMARK  248  A    between atoms: _596  and  _598
REMARK  249  A    between atoms: _598  and  _599
REMARK  250  A    between atoms: _598  and  _601
REMARK  251  A    between atoms: _601  and  _602
REMARK  252  A    between atoms: _607  and  _609
REMARK  253  A    between atoms: _609  and  _610
REMARK  254  A    between atoms: _609  and  _612
REMARK  255  A    between atoms: _612  and  _613
REMARK  256  A    between atoms: _616  and  _618
REMARK  257  A    between atoms: _618  and  _619
REMARK  258  A    between atoms: _618  and  _621
REMARK  259  A    between atoms: _621  and  _622
REMARK  260  A    between atoms: _628  and  _630
REMARK  261  A    between atoms: _630  and  _631
REMARK  262  A    between atoms: _630  and  _633
REMARK  263  A    between atoms: _633  and  _634
REMARK  264  A    between atoms: _634  and  _635
REMARK  265  A    between atoms: _638  and  _640
REMARK  266  A    between atoms: _640  and  _641
REMARK  267  A    between atoms: _640  and  _643
REMARK  268  A    between atoms: _643  and  _644
REMARK  269  A    between atoms: _644  and  _645
REMARK  270  A    between atoms: _645  and  _646
REMARK  271  A    between atoms: _655  and  _657
REMARK  272  A    between atoms: _657  and  _658
REMARK  273  A    between atoms: _657  and  _660
REMARK  274  A    between atoms: _660  and  _661
REMARK  275  A    between atoms: _661  and  _662
REMARK  276  A    between atoms: _662  and  _663
REMARK  277  A    between atoms: _672  and  _674
REMARK  278  A    between atoms: _674  and  _675
REMARK  279  A    between atoms: _674  and  _677
REMARK  280  A    between atoms: _677  and  _678
REMARK  281  A    between atoms: _683  and  _684
REMARK  282  A    between atoms: _686  and  _688
REMARK  283  A    between atoms: _688  and  _689
REMARK  284  A    between atoms: _688  and  _691
REMARK  285  A    between atoms: _691  and  _692
REMARK  286  A    between atoms: _695  and  _697
REMARK  287  A    between atoms: _697  and  _698
REMARK  288  A    between atoms: _697  and  _700
REMARK  289  A    between atoms: _700  and  _701
REMARK  290  A    between atoms: _701  and  _702
REMARK  291  A    between atoms: _702  and  _703
REMARK  292  A    between atoms: _703  and  _704
REMARK  293  A    between atoms: _708  and  _710
REMARK  294  A    between atoms: _710  and  _711
REMARK  295  A    between atoms: _710  and  _713
REMARK  296  A    between atoms: _713  and  _714
REMARK  297  A    between atoms: _719  and  _721
REMARK  298  A    between atoms: _721  and  _722
REMARK  299  A    between atoms: _721  and  _724
REMARK  300  A    between atoms: _724  and  _725
REMARK  301  A    between atoms: _735  and  _737
REMARK  302  A    between atoms: _737  and  _738
REMARK  303  A    between atoms: _737  and  _740
REMARK  304  A    between atoms: _740  and  _741
REMARK  305  A    between atoms: _741  and  _742
REMARK  306  A    between atoms: _745  and  _747
REMARK  307  A    between atoms: _747  and  _748
REMARK  308  A    between atoms: _747  and  _750
REMARK  309  A    between atoms: _750  and  _751
REMARK  310  A    between atoms: _754  and  _756
REMARK  311  A    between atoms: _756  and  _757
REMARK  312  A    between atoms: _756  and  _759
REMARK  313  A    between atoms: _759  and  _760
REMARK  314  A    between atoms: _765  and  _767
REMARK  315  A    between atoms: _767  and  _768
REMARK  316  A    between atoms: _767  and  _770
REMARK  317  A    between atoms: _770  and  _771
REMARK  318  A    between atoms: _777  and  _779
REMARK  319  A    between atoms: _779  and  _780
REMARK  320  A    between atoms: _779  and  _782
REMARK  321  A    between atoms: _782  and  _783
REMARK  322  A    between atoms: _785  and  _787
REMARK  323  A    between atoms: _787  and  _788
REMARK  324  A    between atoms: _790  and  _792
REMARK  325  A    between atoms: _792  and  _793
REMARK  326  A    between atoms: _792  and  _795
REMARK  327  A    between atoms: _795  and  _796
REMARK  328  A    between atoms: _801  and  _802
REMARK  329  A    between atoms: _804  and  _806
REMARK  330  A    between atoms: _806  and  _807
REMARK  331  A    between atoms: _806  and  _809
REMARK  332  A    between atoms: _809  and  _810
REMARK  333  A    between atoms: _815  and  _816
REMARK  334  A    between atoms: _818  and  _820
REMARK  335  A    between atoms: _820  and  _821
REMARK  336  A    between atoms: _820  and  _823
REMARK  337  A    between atoms: _823  and  _824
REMARK  338  A    between atoms: _828  and  ZN_938
REMARK  339  A    between atoms: _829  and  _831
REMARK  340  A    between atoms: _831  and  _832
REMARK  341  A    between atoms: _831  and  _834
REMARK  342  A    between atoms: _834  and  _835
REMARK  343  A    between atoms: _835  and  _836
REMARK  344  A    between atoms: _839  and  _841
REMARK  345  A    between atoms: _841  and  _842
REMARK  346  A    between atoms: _841  and  _844
REMARK  347  A    between atoms: _844  and  _845
REMARK  348  A    between atoms: _845  and  _846
REMARK  349  A    between atoms: _846  and  _847
REMARK  350  A    between atoms: _856  and  _858
REMARK  351  A    between atoms: _858  and  _859
REMARK  352  A    between atoms: _858  and  _861
REMARK  353  A    between atoms: _861  and  _862
REMARK  354  A    between atoms: _867  and  _868
REMARK  355  A    between atoms: _870  and  _872
REMARK  356  A    between atoms: _872  and  _873
REMARK  357  A    between atoms: _872  and  _875
REMARK  358  A    between atoms: _875  and  _876
REMARK  359  A    between atoms: _878  and  _880
REMARK  360  A    between atoms: _880  and  _881
REMARK  361  A    between atoms: _880  and  _883
REMARK  362  A    between atoms: _883  and  _884
REMARK  363  A    between atoms: _889  and  _891
REMARK  364  A    between atoms: _891  and  _892
REMARK  365  A    between atoms: _891  and  _894
REMARK  366  A    between atoms: _894  and  _895
REMARK  367  A    between atoms: _900  and  _902
REMARK  368  A    between atoms: _902  and  _903
REMARK  369  A    between atoms: _902  and  _905
REMARK  370  A    between atoms: _905  and  _906
REMARK  371  A    between atoms: _906  and  _907
REMARK  372  A    between atoms: _907  and  _908
REMARK  373  A    between atoms: _908  and  _909
REMARK  374  A    between atoms: _913  and  _915
REMARK  375  A    between atoms: _915  and  _916
REMARK  376  A    between atoms: _915  and  _918
REMARK  377  A    between atoms: _918  and  _919
REMARK  378  A    between atoms: _924  and  _925
REMARK  379  A    between atoms: _927  and  _929
REMARK  380  A    between atoms: _929  and  _930
REMARK  381  A    between atoms: _933  and  _935
REMARK  382  A    between atoms: _935  and  _936
REMARK                            x       y       z     vdW  Elec       q    Type
REMARK                         _______ _______ _______ _____ _____    ______ ____
ROOT
ATOM      1  O   HOH     1      31.007  52.563  53.457  0.00  0.00    +0.000 OA
ENDROOT
TORSDOF 0
REMARK  Name = ../refined-set-2016/2xeg/2xeg_pocket.pdb
REMARK  382 active torsions:
REMARK  status: ('A' for Active; 'I' for Inactive)
REMARK    1  A    between atoms: _1  and  _3
REMARK    2  A    between atoms: _3  and  _4
REMARK    3  A    between atoms: _7  and  _9
REMARK    4  A    between atoms: _9  and  _10
REMARK    5  A    between atoms: _9  and  _12
REMARK    6  A    between atoms: _12  and  _13
REMARK    7  A    between atoms: _19  and  _21
REMARK    8  A    between atoms: _21  and  _22
REMARK    9  A    between atoms: _21  and  _24
REMARK   10  A    between atoms: _24  and  _25
REMARK   11  A    between atoms: _30  and  _31
REMARK   12  A    between atoms: _33  and  _35
REMARK   13  A    between atoms: _35  and  _36
REMARK   14  A    between atoms: _38  and  _40
REMARK   15  A    between atoms: _40  and  _41
REMARK   16  A    between atoms: _40  and  _43
REMARK   17  A    between atoms: _43  and  _44
REMARK   18  A    between atoms: _44  and  _45
REMARK   19  A    between atoms: _45  and  _46
REMARK   20  A    between atoms: _46  and  _47
REMARK   21  A    between atoms: _51  and  _53
REMARK   22  A    between atoms: _53  and  _54
REMARK   23  A    between atoms: _53  and  _56
REMARK   24  A    between atoms: _59  and  _61
REMARK   25  A    between atoms: _61  and  _62
REMARK   26  A    between atoms: _61  and  _64
REMARK   27  A    between atoms: _64  and  _65
REMARK   28  A    between atoms: _71  and  _73
REMARK   29  A    between atoms: _73  and  _74
REMARK   30  A    between atoms: _73  and  _76
REMARK   31  A    between atoms: _76  and  _77
REMARK   32  A    between atoms: _77  and  _78
REMARK   33  A    between atoms: _78  and  _79
REMARK   34  A    between atoms: _88  and  _90
REMARK   35  A    between atoms: _90  and  _91
REMARK   36  A    between atoms: _93  and  _95
REMARK   37  A    between atoms: _95  and  _96
REMARK   38  A    between atoms: _95  and  _98
REMARK   39  A    between atoms: _98  and  _99
REMARK   40  A    between atoms: _99  and  _100
REMARK   41  A    between atoms: _100  and  _101
REMARK   42  A    between atoms: _101  and  _102
REMARK   43  A    between atoms: _106  and  _108
REMARK   44  A    between atoms: _108  and  _109
REMARK   45  A    between atoms: _108  and  _111
REMARK   46  A    between atoms: _111  and  _112
REMARK   47  A    between atoms: _115  and  _117
REMARK   48  A    between atoms: _117  and  _118
REMARK   49  A    between atoms: _117  and  _120
REMARK   50  A    between atoms: _120  and  _121
REMARK   51  A    between atoms: _126  and  _127
REMARK   52  A    between atoms: _129  and  _131
REMARK   53  A    between atoms: _131  and  _132
REMARK   54  A    between atoms: _131  and  _134
REMARK   55  A    between atoms: _134  and  _135
REMARK   56  A    between atoms: _135  and  _136
REMARK   57  A    between atoms: _141  and  _143
REMARK   58  A    between atoms: _143  and  _144
REMARK   59  A    between atoms: _143  and  _146
REMARK   60  A    between atoms: _146  and  _147
REMARK   61  A    between atoms: _147  and  _148
REMARK   62  A    between atoms: _148  and  _149
REMARK   63  A    between atoms: _158  and  _160
REMARK   64  A    between atoms: _160  and  _161
REMARK   65  A    between atoms: _163  and  _165
REMARK   66  A    between atoms: _165  and  _166
REMARK   67  A    between atoms: _165  and  _168
REMARK   68  A    between atoms: _168  and  _169
REMARK   69  A    between atoms: _174  and  _176
REMARK   70  A    between atoms: _176  and  _177
REMARK   71  A    between atoms: _176  and  _179
REMARK   72  A    between atoms: _179  and  _180
REMARK   73  A    between atoms: _183  and  _185
REMARK   74  A    between atoms: _185  and  _186
REMARK   75  A    between atoms: _185  and  _188
REMARK   76  A    between atoms: _188  and  _189
REMARK   77  A    between atoms: _192  and  _194
REMARK   78  A    between atoms: _194  and  _195
REMARK   79  A    between atoms: _194  and  _197
REMARK   80  A    between atoms: _197  and  _198
REMARK   81  A    between atoms: _203  and  _205
REMARK   82  A    between atoms: _205  and  _206
REMARK   83  A    between atoms: _205  and  _208
REMARK   84  A    between atoms: _208  and  _209
REMARK   85  A    between atoms: _212  and  _214
REMARK   86  A    between atoms: _214  and  _215
REMARK   87  A    between atoms: _214  and  _217
REMARK   88  A    between atoms: _217  and  _218
REMARK   89  A    between atoms: _223  and  _225
REMARK   90  A    between atoms: _225  and  _226
REMARK   91  A    between atoms: _228  and  _230
REMARK   92  A    between atoms: _230  and  _231
REMARK   93  A    between atoms: _230  and  _233
REMARK   94  A    between atoms: _233  and  _234
REMARK   95  A    between atoms: _238  and  ZN_939
REMARK   96  A    between atoms: _239  and  _241
REMARK   97  A    between atoms: _241  and  _242
REMARK   98  A    between atoms: _241  and  _244
REMARK   99  A    between atoms: _244  and  _245
REMARK  100  A    between atoms: _248  and  _250
REMARK  101  A    between atoms: _250  and  _251
REMARK  102  A    between atoms: _250  and  _253
REMARK  103  A    between atoms: _253  and  _254
REMARK  104  A    between atoms: _264  and  _266
REMARK  105  A    between atoms: _266  and  _267
REMARK  106  A    between atoms: _266  and  _269
REMARK  107  A    between atoms: _269  and  _270
REMARK  108  A    between atoms: _273  and  _275
REMARK  109  A    between atoms: _275  and  _276
REMARK  110  A    between atoms: _275  and  _278
REMARK  111  A    between atoms: _278  and  _279
REMARK  112  A    between atoms: _279  and  _280
REMARK  113  A    between atoms: _279  and  _281
REMARK  114  A    between atoms: _280  and  ZN_939
REMARK  115  A    between atoms: _281  and  ZN_938
REMARK  116  A    between atoms: _283  and  _284
REMARK  117  A    between atoms: _289  and  _291
REMARK  118  A    between atoms: _291  and  _292
REMARK  119  A    between atoms: _295  and  _297
REMARK  120  A    between atoms: _297  and  _298
REMARK  121  A    between atoms: _297  and  _300
REMARK  122  A    between atoms: _300  and  _301
REMARK  123  A    between atoms: _301  and  _302
REMARK  124  A    between atoms: _305  and  _307
REMARK  125  A    between atoms: _307  and  _308
REMARK  126  A    between atoms: _307  and  _310
REMARK  127  A    between atoms: _310  and  _311
REMARK  128  A    between atoms: _311  and  _312
REMARK  129  A    between atoms: _312  and  _314
REMARK  130  A    between atoms: _314  and  ZN_938
REMARK  131  A    between atoms: _315  and  _317
REMARK  132  A    between atoms: _317  and  _318
REMARK  133  A    between atoms: _317  and  _320
REMARK  134  A    between atoms: _320  and  _321
REMARK  135  A    between atoms: _327  and  _329
REMARK  136  A    between atoms: _329  and  _330
REMARK  137  A    between atoms: _332  and  _334
REMARK  138  A    between atoms: _334  and  _335
REMARK  139  A    between atoms: _334  and  _337
REMARK  140  A    between atoms: _337  and  _338
REMARK  141  A    between atoms: _341  and  _343
REMARK  142  A    between atoms: _343  and  _344
REMARK  143  A    between atoms: _343  and  _346
REMARK  144  A    between atoms: _346  and  _347
REMARK  145  A    between atoms: _350  and  _352
REMARK  146  A    between atoms: _352  and  _353
REMARK  147  A    between atoms: _352  and  _355
REMARK  148  A    between atoms: _355  and  _356
REMARK  149  A    between atoms: _361  and  _363
REMARK  150  A    between atoms: _363  and  _364
REMARK  151  A    between atoms: _363  and  _366
REMARK  152  A    between atoms: _366  and  _367
REMARK  153  A    between atoms: _367  and  _369
REMARK  154  A    between atoms: _369  and  ZN_939
REMARK  155  A    between atoms: _370  and  _372
REMARK  156  A    between atoms: _372  and  _373
REMARK  157  A    between atoms: _372  and  _375
REMARK  158  A    between atoms: _375  and  _376
REMARK  159  A    between atoms: _378  and  _380
REMARK  160  A    between atoms: _380  and  _381
REMARK  161  A    between atoms: _380  and  _383
REMARK  162  A    between atoms: _383  and  _384
REMARK  163  A    between atoms: _386  and  _388
REMARK  164  A    between atoms: _388  and  _389
REMARK  165  A    between atoms: _388  and  _391
REMARK  166  A    between atoms: _391  and  _392
REMARK  167  A    between atoms: _395  and  _397
REMARK  168  A    between atoms: _397  and  _398
REMARK  169  A    between atoms: _397  and  _400
REMARK  170  A    between atoms: _400  and  _401
REMARK  171  A    between atoms: _401  and  _402
REMARK  172  A    between atoms: _405  and  _407
REMARK  173  A    between atoms: _407  and  _408
REMARK  174  A    between atoms: _407  and  _410
REMARK  175  A    between atoms: _410  and  _411
REMARK  176  A    between atoms: _416  and  _417
REMARK  177  A    between atoms: _419  and  _421
REMARK  178  A    between atoms: _421  and  _422
REMARK  179  A    between atoms: _421  and  _424
REMARK  180  A    between atoms: _424  and  _425
REMARK  181  A    between atoms: _428  and  _430
REMARK  182  A    between atoms: _430  and  _431
REMARK  183  A    between atoms: _430  and  _433
REMARK  184  A    between atoms: _433  and  _434
REMARK  185  A    between atoms: _437  and  _439
REMARK  186  A    between atoms: _439  and  _440
REMARK  187  A    between atoms: _439  and  _442
REMARK  188  A    between atoms: _442  and  _443
REMARK  189  A    between atoms: _443  and  _444
REMARK  190  A    between atoms: _444  and  _445
REMARK  191  A    between atoms: _454  and  _456
REMARK  192  A    between atoms: _456  and  _457
REMARK  193  A    between atoms: _456  and  _459
REMARK  194  A    between atoms: _462  and  _464
REMARK  195  A    between atoms: _464  and  _465
REMARK  196  A    between atoms: _464  and  _467
REMARK  197  A    between atoms: _467  and  _468
REMARK  198  A    between atoms: _471  and  _473
REMARK  199  A    between atoms: _473  and  _474
REMARK  200  A    between atoms: _473  and  _476
REMARK  201  A    between atoms: _476  and  _477
REMARK  202  A    between atoms: _487  and  _489
REMARK  203  A    between atoms: _489  and  _490
REMARK  204  A    between atoms: _489  and  _492
REMARK  205  A    between atoms: _492  and  _493
REMARK  206  A    between atoms: _493  and  _494
REMARK  207  A    between atoms: _494  and  _495
REMARK  208  A    between atoms: _495  and  _496
REMARK  209  A    between atoms: _500  and  _502
REMARK  210  A    between atoms: _502  and  _503
REMARK  211  A    between atoms: _502  and  _505
REMARK  212  A    between atoms: _505  and  _506
REMARK  213  A    between atoms: _509  and  _510
REMARK  214  A    between atoms: _516  and  _517
REMARK  215  A    between atoms: _522  and  _524
REMARK  216  A    between atoms: _524  and  _525
REMARK  217  A    between atoms: _524  and  _527
REMARK  218  A    between atoms: _527  and  _528
REMARK  219  A    between atoms: _528  and  _529
REMARK  220  A    between atoms: _529  and  _530
REMARK  221  A    between atoms: _539  and  _541
REMARK  222  A    between atoms: _541  and  _542
REMARK  223  A    between atoms: _541  and  _544
REMARK  224  A    between atoms: _544  and  _545
REMARK  225  A    between atoms: _548  and  _550
REMARK  226  A    between atoms: _550  and  _551
REMARK  227  A    between atoms: _550  and  _553
REMARK  228  A    between atoms: _553  and  _554
REMARK  229  A    between atoms: _556  and  _558
REMARK  230  A    between atoms: _558  and  _559
REMARK  231  A    between atoms: _558  and  _561
REMARK  232  A    between atoms: _561  and  _562
REMARK  233  A    between atoms: _562  and  _563
REMARK  234  A    between atoms: _563  and  _564
REMARK  235  A    between atoms: _564  and  _565
REMARK  236  A    between atoms: _569  and  _571
REMARK  237  A    between atoms: _571  and  _572
REMARK  238  A    between atoms: _571  and  _574
REMARK  239  A    between atoms: _574  and  _575
REMARK  240  A    between atoms: _578  and  _580
REMARK  241  A    between atoms: _580  and  _581
REMARK  242  A    between atoms: _583  and  _585
REMARK  243  A    between atoms: _585  and  _586
REMARK  244  A    between atoms: _585  and  _588
REMARK  245  A    between atoms: _588  and  _589
REMARK  246  A    between atoms: _591  and  _593
REMARK  247  A    between atoms: _593  and  _594
REMARK  248  A    between atoms: _596  and  _598
REMARK  249  A    between atoms: _598  and  _599
REMARK  250  A    between atoms: _598  and  _601
REMARK  251  A    between atoms: _601  and  _602
REMARK  252  A    between atoms: _607  and  _609
REMARK  253  A    between atoms: _609  and  _610
REMARK  254  A    between atoms: _609  and  _612
REMARK  255  A    between atoms: _612  and  _613
REMARK  256  A    between atoms: _616  and  _618
REMARK  257  A    between atoms: _618  and  _619
REMARK  258  A    between atoms: _618  and  _621
REMARK  259  A    between atoms: _621  and  _622
REMARK  260  A    between atoms: _628  and  _630
REMARK  261  A    between atoms: _630  and  _631
REMARK  262  A    between atoms: _630  and  _633
REMARK  263  A    between atoms: _633  and  _634
REMARK  264  A    between atoms: _634  and  _635
REMARK  265  A    between atoms: _638  and  _640
REMARK  266  A    between atoms: _640  and  _641
REMARK  267  A    between atoms: _640  and  _643
REMARK  268  A    between atoms: _643  and  _644
REMARK  269  A    between atoms: _644  and  _645
REMARK  270  A    between atoms: _645  and  _646
REMARK  271  A    between atoms: _655  and  _657
REMARK  272  A    between atoms: _657  and  _658
REMARK  273  A    between atoms: _657  and  _660
REMARK  274  A    between atoms: _660  and  _661
REMARK  275  A    between atoms: _661  and  _662
REMARK  276  A    between atoms: _662  and  _663
REMARK  277  A    between atoms: _672  and  _674
REMARK  278  A    between atoms: _674  and  _675
REMARK  279  A    between atoms: _674  and  _677
REMARK  280  A    between atoms: _677  and  _678
REMARK  281  A    between atoms: _683  and  _684
REMARK  282  A    between atoms: _686  and  _688
REMARK  283  A    between atoms: _688  and  _689
REMARK  284  A    between atoms: _688  and  _691
REMARK  285  A    between atoms: _691  and  _692
REMARK  286  A    between atoms: _695  and  _697
REMARK  287  A    between atoms: _697  and  _698
REMARK  288  A    between atoms: _697  and  _700
REMARK  289  A    between atoms: _700  and  _701
REMARK  290  A    between atoms: _701  and  _702
REMARK  291  A    between atoms: _702  and  _703
REMARK  292  A    between atoms: _703  and  _704
REMARK  293  A    between atoms: _708  and  _710
REMARK  294  A    between atoms: _710  and  _711
REMARK  295  A    between atoms: _710  and  _713
REMARK  296  A    between atoms: _713  and  _714
REMARK  297  A    between atoms: _719  and  _721
REMARK  298  A    between atoms: _721  and  _722
REMARK  299  A    between atoms: _721  and  _724
REMARK  300  A    between atoms: _724  and  _725
REMARK  301  A    between atoms: _735  and  _737
REMARK  302  A    between atoms: _737  and  _738
REMARK  303  A    between atoms: _737  and  _740
REMARK  304  A    between atoms: _740  and  _741
REMARK  305  A    between atoms: _741  and  _742
REMARK  306  A    between atoms: _745  and  _747
REMARK  307  A    between atoms: _747  and  _748
REMARK  308  A    between atoms: _747  and  _750
REMARK  309  A    between atoms: _750  and  _751
REMARK  310  A    between atoms: _754  and  _756
REMARK  311  A    between atoms: _756  and  _757
REMARK  312  A    between atoms: _756  and  _759
REMARK  313  A    between atoms: _759  and  _760
REMARK  314  A    between atoms: _765  and  _767
REMARK  315  A    between atoms: _767  and  _768
REMARK  316  A    between atoms: _767  and  _770
REMARK  317  A    between atoms: _770  and  _771
REMARK  318  A    between atoms: _777  and  _779
REMARK  319  A    between atoms: _779  and  _780
REMARK  320  A    between atoms: _779  and  _782
REMARK  321  A    between atoms: _782  and  _783
REMARK  322  A    between atoms: _785  and  _787
REMARK  323  A    between atoms: _787  and  _788
REMARK  324  A    between atoms: _790  and  _792
REMARK  325  A    between atoms: _792  and  _793
REMARK  326  A    between atoms: _792  and  _795
REMARK  327  A    between atoms: _795  and  _796
REMARK  328  A    between atoms: _801  and  _802
REMARK  329  A    between atoms: _804  and  _806
REMARK  330  A    between atoms: _806  and  _807
REMARK  331  A    between atoms: _806  and  _809
REMARK  332  A    between atoms: _809  and  _810
REMARK  333  A    between atoms: _815  and  _816
REMARK  334  A    between atoms: _818  and  _820
REMARK  335  A    between atoms: _820  and  _821
REMARK  336  A    between atoms: _820  and  _823
REMARK  337  A    between atoms: _823  and  _824
REMARK  338  A    between atoms: _828  and  ZN_938
REMARK  339  A    between atoms: _829  and  _831
REMARK  340  A    between atoms: _831  and  _832
REMARK  341  A    between atoms: _831  and  _834
REMARK  342  A    between atoms: _834  and  _835
REMARK  343  A    between atoms: _835  and  _836
REMARK  344  A    between atoms: _839  and  _841
REMARK  345  A    between atoms: _841  and  _842
REMARK  346  A    between atoms: _841  and  _844
REMARK  347  A    between atoms: _844  and  _845
REMARK  348  A    between atoms: _845  and  _846
REMARK  349  A    between atoms: _846  and  _847
REMARK  350  A    between atoms: _856  and  _858
REMARK  351  A    between atoms: _858  and  _859
REMARK  352  A    between atoms: _858  and  _861
REMARK  353  A    between atoms: _861  and  _862
REMARK  354  A    between atoms: _867  and  _868
REMARK  355  A    between atoms: _870  and  _872
REMARK  356  A    between atoms: _872  and  _873
REMARK  357  A    between atoms: _872  and  _875
REMARK  358  A    between atoms: _875  and  _876
REMARK  359  A    between atoms: _878  and  _880
REMARK  360  A    between atoms: _880  and  _881
REMARK  361  A    between atoms: _880  and  _883
REMARK  362  A    between atoms: _883  and  _884
REMARK  363  A    between atoms: _889  and  _891
REMARK  364  A    between atoms: _891  and  _892
REMARK  365  A    between atoms: _891  and  _894
REMARK  366  A    between atoms: _894  and  _895
REMARK  367  A    between atoms: _900  and  _902
REMARK  368  A    between atoms: _902  and  _903
REMARK  369  A    between atoms: _902  and  _905
REMARK  370  A    between atoms: _905  and  _906
REMARK  371  A    between atoms: _906  and  _907
REMARK  372  A    between atoms: _907  and  _908
REMARK  373  A    between atoms: _908  and  _909
REMARK  374  A    between atoms: _913  and  _915
REMARK  375  A    between atoms: _915  and  _916
REMARK  376  A    between atoms: _915  and  _918
REMARK  377  A    between atoms: _918  and  _919
REMARK  378  A    between atoms: _924  and  _925
REMARK  379  A    between atoms: _927  and  _929
REMARK  380  A    between atoms: _929  and  _930
REMARK  381  A    between atoms: _933  and  _935
REMARK  382  A    between atoms: _935  and  _936
REMARK                            x       y       z     vdW  Elec       q    Type
REMARK                         _______ _______ _______ _____ _____    ______ ____
ROOT
ATOM      1  O   HOH     1      23.345  49.747  52.205  0.00  0.00    +0.000 OA
ENDROOT
TORSDOF 0
REMARK  Name = ../refined-set-2016/2xeg/2xeg_pocket.pdb
REMARK  382 active torsions:
REMARK  status: ('A' for Active; 'I' for Inactive)
REMARK    1  A    between atoms: _1  and  _3
REMARK    2  A    between atoms: _3  and  _4
REMARK    3  A    between atoms: _7  and  _9
REMARK    4  A    between atoms: _9  and  _10
REMARK    5  A    between atoms: _9  and  _12
REMARK    6  A    between atoms: _12  and  _13
REMARK    7  A    between atoms: _19  and  _21
REMARK    8  A    between atoms: _21  and  _22
REMARK    9  A    between atoms: _21  and  _24
REMARK   10  A    between atoms: _24  and  _25
REMARK   11  A    between atoms: _30  and  _31
REMARK   12  A    between atoms: _33  and  _35
REMARK   13  A    between atoms: _35  and  _36
REMARK   14  A    between atoms: _38  and  _40
REMARK   15  A    between atoms: _40  and  _41
REMARK   16  A    between atoms: _40  and  _43
REMARK   17  A    between atoms: _43  and  _44
REMARK   18  A    between atoms: _44  and  _45
REMARK   19  A    between atoms: _45  and  _46
REMARK   20  A    between atoms: _46  and  _47
REMARK   21  A    between atoms: _51  and  _53
REMARK   22  A    between atoms: _53  and  _54
REMARK   23  A    between atoms: _53  and  _56
REMARK   24  A    between atoms: _59  and  _61
REMARK   25  A    between atoms: _61  and  _62
REMARK   26  A    between atoms: _61  and  _64
REMARK   27  A    between atoms: _64  and  _65
REMARK   28  A    between atoms: _71  and  _73
REMARK   29  A    between atoms: _73  and  _74
REMARK   30  A    between atoms: _73  and  _76
REMARK   31  A    between atoms: _76  and  _77
REMARK   32  A    between atoms: _77  and  _78
REMARK   33  A    between atoms: _78  and  _79
REMARK   34  A    between atoms: _88  and  _90
REMARK   35  A    between atoms: _90  and  _91
REMARK   36  A    between atoms: _93  and  _95
REMARK   37  A    between atoms: _95  and  _96
REMARK   38  A    between atoms: _95  and  _98
REMARK   39  A    between atoms: _98  and  _99
REMARK   40  A    between atoms: _99  and  _100
REMARK   41  A    between atoms: _100  and  _101
REMARK   42  A    between atoms: _101  and  _102
REMARK   43  A    between atoms: _106  and  _108
REMARK   44  A    between atoms: _108  and  _109
REMARK   45  A    between atoms: _108  and  _111
REMARK   46  A    between atoms: _111  and  _112
REMARK   47  A    between atoms: _115  and  _117
REMARK   48  A    between atoms: _117  and  _118
REMARK   49  A    between atoms: _117  and  _120
REMARK   50  A    between atoms: _120  and  _121
REMARK   51  A    between atoms: _126  and  _127
REMARK   52  A    between atoms: _129  and  _131
REMARK   53  A    between atoms: _131  and  _132
REMARK   54  A    between atoms: _131  and  _134
REMARK   55  A    between atoms: _134  and  _135
REMARK   56  A    between atoms: _135  and  _136
REMARK   57  A    between atoms: _141  and  _143
REMARK   58  A    between atoms: _143  and  _144
REMARK   59  A    between atoms: _143  and  _146
REMARK   60  A    between atoms: _146  and  _147
REMARK   61  A    between atoms: _147  and  _148
REMARK   62  A    between atoms: _148  and  _149
REMARK   63  A    between atoms: _158  and  _160
REMARK   64  A    between atoms: _160  and  _161
REMARK   65  A    between atoms: _163  and  _165
REMARK   66  A    between atoms: _165  and  _166
REMARK   67  A    between atoms: _165  and  _168
REMARK   68  A    between atoms: _168  and  _169
REMARK   69  A    between atoms: _174  and  _176
REMARK   70  A    between atoms: _176  and  _177
REMARK   71  A    between atoms: _176  and  _179
REMARK   72  A    between atoms: _179  and  _180
REMARK   73  A    between atoms: _183  and  _185
REMARK   74  A    between atoms: _185  and  _186
REMARK   75  A    between atoms: _185  and  _188
REMARK   76  A    between atoms: _188  and  _189
REMARK   77  A    between atoms: _192  and  _194
REMARK   78  A    between atoms: _194  and  _195
REMARK   79  A    between atoms: _194  and  _197
REMARK   80  A    between atoms: _197  and  _198
REMARK   81  A    between atoms: _203  and  _205
REMARK   82  A    between atoms: _205  and  _206
REMARK   83  A    between atoms: _205  and  _208
REMARK   84  A    between atoms: _208  and  _209
REMARK   85  A    between atoms: _212  and  _214
REMARK   86  A    between atoms: _214  and  _215
REMARK   87  A    between atoms: _214  and  _217
REMARK   88  A    between atoms: _217  and  _218
REMARK   89  A    between atoms: _223  and  _225
REMARK   90  A    between atoms: _225  and  _226
REMARK   91  A    between atoms: _228  and  _230
REMARK   92  A    between atoms: _230  and  _231
REMARK   93  A    between atoms: _230  and  _233
REMARK   94  A    between atoms: _233  and  _234
REMARK   95  A    between atoms: _238  and  ZN_939
REMARK   96  A    between atoms: _239  and  _241
REMARK   97  A    between atoms: _241  and  _242
REMARK   98  A    between atoms: _241  and  _244
REMARK   99  A    between atoms: _244  and  _245
REMARK  100  A    between atoms: _248  and  _250
REMARK  101  A    between atoms: _250  and  _251
REMARK  102  A    between atoms: _250  and  _253
REMARK  103  A    between atoms: _253  and  _254
REMARK  104  A    between atoms: _264  and  _266
REMARK  105  A    between atoms: _266  and  _267
REMARK  106  A    between atoms: _266  and  _269
REMARK  107  A    between atoms: _269  and  _270
REMARK  108  A    between atoms: _273  and  _275
REMARK  109  A    between atoms: _275  and  _276
REMARK  110  A    between atoms: _275  and  _278
REMARK  111  A    between atoms: _278  and  _279
REMARK  112  A    between atoms: _279  and  _280
REMARK  113  A    between atoms: _279  and  _281
REMARK  114  A    between atoms: _280  and  ZN_939
REMARK  115  A    between atoms: _281  and  ZN_938
REMARK  116  A    between atoms: _283  and  _284
REMARK  117  A    between atoms: _289  and  _291
REMARK  118  A    between atoms: _291  and  _292
REMARK  119  A    between atoms: _295  and  _297
REMARK  120  A    between atoms: _297  and  _298
REMARK  121  A    between atoms: _297  and  _300
REMARK  122  A    between atoms: _300  and  _301
REMARK  123  A    between atoms: _301  and  _302
REMARK  124  A    between atoms: _305  and  _307
REMARK  125  A    between atoms: _307  and  _308
REMARK  126  A    between atoms: _307  and  _310
REMARK  127  A    between atoms: _310  and  _311
REMARK  128  A    between atoms: _311  and  _312
REMARK  129  A    between atoms: _312  and  _314
REMARK  130  A    between atoms: _314  and  ZN_938
REMARK  131  A    between atoms: _315  and  _317
REMARK  132  A    between atoms: _317  and  _318
REMARK  133  A    between atoms: _317  and  _320
REMARK  134  A    between atoms: _320  and  _321
REMARK  135  A    between atoms: _327  and  _329
REMARK  136  A    between atoms: _329  and  _330
REMARK  137  A    between atoms: _332  and  _334
REMARK  138  A    between atoms: _334  and  _335
REMARK  139  A    between atoms: _334  and  _337
REMARK  140  A    between atoms: _337  and  _338
REMARK  141  A    between atoms: _341  and  _343
REMARK  142  A    between atoms: _343  and  _344
REMARK  143  A    between atoms: _343  and  _346
REMARK  144  A    between atoms: _346  and  _347
REMARK  145  A    between atoms: _350  and  _352
REMARK  146  A    between atoms: _352  and  _353
REMARK  147  A    between atoms: _352  and  _355
REMARK  148  A    between atoms: _355  and  _356
REMARK  149  A    between atoms: _361  and  _363
REMARK  150  A    between atoms: _363  and  _364
REMARK  151  A    between atoms: _363  and  _366
REMARK  152  A    between atoms: _366  and  _367
REMARK  153  A    between atoms: _367  and  _369
REMARK  154  A    between atoms: _369  and  ZN_939
REMARK  155  A    between atoms: _370  and  _372
REMARK  156  A    between atoms: _372  and  _373
REMARK  157  A    between atoms: _372  and  _375
REMARK  158  A    between atoms: _375  and  _376
REMARK  159  A    between atoms: _378  and  _380
REMARK  160  A    between atoms: _380  and  _381
REMARK  161  A    between atoms: _380  and  _383
REMARK  162  A    between atoms: _383  and  _384
REMARK  163  A    between atoms: _386  and  _388
REMARK  164  A    between atoms: _388  and  _389
REMARK  165  A    between atoms: _388  and  _391
REMARK  166  A    between atoms: _391  and  _392
REMARK  167  A    between atoms: _395  and  _397
REMARK  168  A    between atoms: _397  and  _398
REMARK  169  A    between atoms: _397  and  _400
REMARK  170  A    between atoms: _400  and  _401
REMARK  171  A    between atoms: _401  and  _402
REMARK  172  A    between atoms: _405  and  _407
REMARK  173  A    between atoms: _407  and  _408
REMARK  174  A    between atoms: _407  and  _410
REMARK  175  A    between atoms: _410  and  _411
REMARK  176  A    between atoms: _416  and  _417
REMARK  177  A    between atoms: _419  and  _421
REMARK  178  A    between atoms: _421  and  _422
REMARK  179  A    between atoms: _421  and  _424
REMARK  180  A    between atoms: _424  and  _425
REMARK  181  A    between atoms: _428  and  _430
REMARK  182  A    between atoms: _430  and  _431
REMARK  183  A    between atoms: _430  and  _433
REMARK  184  A    between atoms: _433  and  _434
REMARK  185  A    between atoms: _437  and  _439
REMARK  186  A    between atoms: _439  and  _440
REMARK  187  A    between atoms: _439  and  _442
REMARK  188  A    between atoms: _442  and  _443
REMARK  189  A    between atoms: _443  and  _444
REMARK  190  A    between atoms: _444  and  _445
REMARK  191  A    between atoms: _454  and  _456
REMARK  192  A    between atoms: _456  and  _457
REMARK  193  A    between atoms: _456  and  _459
REMARK  194  A    between atoms: _462  and  _464
REMARK  195  A    between atoms: _464  and  _465
REMARK  196  A    between atoms: _464  and  _467
REMARK  197  A    between atoms: _467  and  _468
REMARK  198  A    between atoms: _471  and  _473
REMARK  199  A    between atoms: _473  and  _474
REMARK  200  A    between atoms: _473  and  _476
REMARK  201  A    between atoms: _476  and  _477
REMARK  202  A    between atoms: _487  and  _489
REMARK  203  A    between atoms: _489  and  _490
REMARK  204  A    between atoms: _489  and  _492
REMARK  205  A    between atoms: _492  and  _493
REMARK  206  A    between atoms: _493  and  _494
REMARK  207  A    between atoms: _494  and  _495
REMARK  208  A    between atoms: _495  and  _496
REMARK  209  A    between atoms: _500  and  _502
REMARK  210  A    between atoms: _502  and  _503
REMARK  211  A    between atoms: _502  and  _505
REMARK  212  A    between atoms: _505  and  _506
REMARK  213  A    between atoms: _509  and  _510
REMARK  214  A    between atoms: _516  and  _517
REMARK  215  A    between atoms: _522  and  _524
REMARK  216  A    between atoms: _524  and  _525
REMARK  217  A    between atoms: _524  and  _527
REMARK  218  A    between atoms: _527  and  _528
REMARK  219  A    between atoms: _528  and  _529
REMARK  220  A    between atoms: _529  and  _530
REMARK  221  A    between atoms: _539  and  _541
REMARK  222  A    between atoms: _541  and  _542
REMARK  223  A    between atoms: _541  and  _544
REMARK  224  A    between atoms: _544  and  _545
REMARK  225  A    between atoms: _548  and  _550
REMARK  226  A    between atoms: _550  and  _551
REMARK  227  A    between atoms: _550  and  _553
REMARK  228  A    between atoms: _553  and  _554
REMARK  229  A    between atoms: _556  and  _558
REMARK  230  A    between atoms: _558  and  _559
REMARK  231  A    between atoms: _558  and  _561
REMARK  232  A    between atoms: _561  and  _562
REMARK  233  A    between atoms: _562  and  _563
REMARK  234  A    between atoms: _563  and  _564
REMARK  235  A    between atoms: _564  and  _565
REMARK  236  A    between atoms: _569  and  _571
REMARK  237  A    between atoms: _571  and  _572
REMARK  238  A    between atoms: _571  and  _574
REMARK  239  A    between atoms: _574  and  _575
REMARK  240  A    between atoms: _578  and  _580
REMARK  241  A    between atoms: _580  and  _581
REMARK  242  A    between atoms: _583  and  _585
REMARK  243  A    between atoms: _585  and  _586
REMARK  244  A    between atoms: _585  and  _588
REMARK  245  A    between atoms: _588  and  _589
REMARK  246  A    between atoms: _591  and  _593
REMARK  247  A    between atoms: _593  and  _594
REMARK  248  A    between atoms: _596  and  _598
REMARK  249  A    between atoms: _598  and  _599
REMARK  250  A    between atoms: _598  and  _601
REMARK  251  A    between atoms: _601  and  _602
REMARK  252  A    between atoms: _607  and  _609
REMARK  253  A    between atoms: _609  and  _610
REMARK  254  A    between atoms: _609  and  _612
REMARK  255  A    between atoms: _612  and  _613
REMARK  256  A    between atoms: _616  and  _618
REMARK  257  A    between atoms: _618  and  _619
REMARK  258  A    between atoms: _618  and  _621
REMARK  259  A    between atoms: _621  and  _622
REMARK  260  A    between atoms: _628  and  _630
REMARK  261  A    between atoms: _630  and  _631
REMARK  262  A    between atoms: _630  and  _633
REMARK  263  A    between atoms: _633  and  _634
REMARK  264  A    between atoms: _634  and  _635
REMARK  265  A    between atoms: _638  and  _640
REMARK  266  A    between atoms: _640  and  _641
REMARK  267  A    between atoms: _640  and  _643
REMARK  268  A    between atoms: _643  and  _644
REMARK  269  A    between atoms: _644  and  _645
REMARK  270  A    between atoms: _645  and  _646
REMARK  271  A    between atoms: _655  and  _657
REMARK  272  A    between atoms: _657  and  _658
REMARK  273  A    between atoms: _657  and  _660
REMARK  274  A    between atoms: _660  and  _661
REMARK  275  A    between atoms: _661  and  _662
REMARK  276  A    between atoms: _662  and  _663
REMARK  277  A    between atoms: _672  and  _674
REMARK  278  A    between atoms: _674  and  _675
REMARK  279  A    between atoms: _674  and  _677
REMARK  280  A    between atoms: _677  and  _678
REMARK  281  A    between atoms: _683  and  _684
REMARK  282  A    between atoms: _686  and  _688
REMARK  283  A    between atoms: _688  and  _689
REMARK  284  A    between atoms: _688  and  _691
REMARK  285  A    between atoms: _691  and  _692
REMARK  286  A    between atoms: _695  and  _697
REMARK  287  A    between atoms: _697  and  _698
REMARK  288  A    between atoms: _697  and  _700
REMARK  289  A    between atoms: _700  and  _701
REMARK  290  A    between atoms: _701  and  _702
REMARK  291  A    between atoms: _702  and  _703
REMARK  292  A    between atoms: _703  and  _704
REMARK  293  A    between atoms: _708  and  _710
REMARK  294  A    between atoms: _710  and  _711
REMARK  295  A    between atoms: _710  and  _713
REMARK  296  A    between atoms: _713  and  _714
REMARK  297  A    between atoms: _719  and  _721
REMARK  298  A    between atoms: _721  and  _722
REMARK  299  A    between atoms: _721  and  _724
REMARK  300  A    between atoms: _724  and  _725
REMARK  301  A    between atoms: _735  and  _737
REMARK  302  A    between atoms: _737  and  _738
REMARK  303  A    between atoms: _737  and  _740
REMARK  304  A    between atoms: _740  and  _741
REMARK  305  A    between atoms: _741  and  _742
REMARK  306  A    between atoms: _745  and  _747
REMARK  307  A    between atoms: _747  and  _748
REMARK  308  A    between atoms: _747  and  _750
REMARK  309  A    between atoms: _750  and  _751
REMARK  310  A    between atoms: _754  and  _756
REMARK  311  A    between atoms: _756  and  _757
REMARK  312  A    between atoms: _756  and  _759
REMARK  313  A    between atoms: _759  and  _760
REMARK  314  A    between atoms: _765  and  _767
REMARK  315  A    between atoms: _767  and  _768
REMARK  316  A    between atoms: _767  and  _770
REMARK  317  A    between atoms: _770  and  _771
REMARK  318  A    between atoms: _777  and  _779
REMARK  319  A    between atoms: _779  and  _780
REMARK  320  A    between atoms: _779  and  _782
REMARK  321  A    between atoms: _782  and  _783
REMARK  322  A    between atoms: _785  and  _787
REMARK  323  A    between atoms: _787  and  _788
REMARK  324  A    between atoms: _790  and  _792
REMARK  325  A    between atoms: _792  and  _793
REMARK  326  A    between atoms: _792  and  _795
REMARK  327  A    between atoms: _795  and  _796
REMARK  328  A    between atoms: _801  and  _802
REMARK  329  A    between atoms: _804  and  _806
REMARK  330  A    between atoms: _806  and  _807
REMARK  331  A    between atoms: _806  and  _809
REMARK  332  A    between atoms: _809  and  _810
REMARK  333  A    between atoms: _815  and  _816
REMARK  334  A    between atoms: _818  and  _820
REMARK  335  A    between atoms: _820  and  _821
REMARK  336  A    between atoms: _820  and  _823
REMARK  337  A    between atoms: _823  and  _824
REMARK  338  A    between atoms: _828  and  ZN_938
REMARK  339  A    between atoms: _829  and  _831
REMARK  340  A    between atoms: _831  and  _832
REMARK  341  A    between atoms: _831  and  _834
REMARK  342  A    between atoms: _834  and  _835
REMARK  343  A    between atoms: _835  and  _836
REMARK  344  A    between atoms: _839  and  _841
REMARK  345  A    between atoms: _841  and  _842
REMARK  346  A    between atoms: _841  and  _844
REMARK  347  A    between atoms: _844  and  _845
REMARK  348  A    between atoms: _845  and  _846
REMARK  349  A    between atoms: _846  and  _847
REMARK  350  A    between atoms: _856  and  _858
REMARK  351  A    between atoms: _858  and  _859
REMARK  352  A    between atoms: _858  and  _861
REMARK  353  A    between atoms: _861  and  _862
REMARK  354  A    between atoms: _867  and  _868
REMARK  355  A    between atoms: _870  and  _872
REMARK  356  A    between atoms: _872  and  _873
REMARK  357  A    between atoms: _872  and  _875
REMARK  358  A    between atoms: _875  and  _876
REMARK  359  A    between atoms: _878  and  _880
REMARK  360  A    between atoms: _880  and  _881
REMARK  361  A    between atoms: _880  and  _883
REMARK  362  A    between atoms: _883  and  _884
REMARK  363  A    between atoms: _889  and  _891
REMARK  364  A    between atoms: _891  and  _892
REMARK  365  A    between atoms: _891  and  _894
REMARK  366  A    between atoms: _894  and  _895
REMARK  367  A    between atoms: _900  and  _902
REMARK  368  A    between atoms: _902  and  _903
REMARK  369  A    between atoms: _902  and  _905
REMARK  370  A    between atoms: _905  and  _906
REMARK  371  A    between atoms: _906  and  _907
REMARK  372  A    between atoms: _907  and  _908
REMARK  373  A    between atoms: _908  and  _909
REMARK  374  A    between atoms: _913  and  _915
REMARK  375  A    between atoms: _915  and  _916
REMARK  376  A    between atoms: _915  and  _918
REMARK  377  A    between atoms: _918  and  _919
REMARK  378  A    between atoms: _924  and  _925
REMARK  379  A    between atoms: _927  and  _929
REMARK  380  A    between atoms: _929  and  _930
REMARK  381  A    between atoms: _933  and  _935
REMARK  382  A    between atoms: _935  and  _936
REMARK                            x       y       z     vdW  Elec       q    Type
REMARK                         _______ _______ _______ _____ _____    ______ ____
ROOT
ATOM      1  O   HOH     1      24.998  48.764  43.882  0.00  0.00    +0.000 OA
ENDROOT
TORSDOF 0
REMARK  Name = ../refined-set-2016/2xeg/2xeg_pocket.pdb
REMARK  382 active torsions:
REMARK  status: ('A' for Active; 'I' for Inactive)
REMARK    1  A    between atoms: _1  and  _3
REMARK    2  A    between atoms: _3  and  _4
REMARK    3  A    between atoms: _7  and  _9
REMARK    4  A    between atoms: _9  and  _10
REMARK    5  A    between atoms: _9  and  _12
REMARK    6  A    between atoms: _12  and  _13
REMARK    7  A    between atoms: _19  and  _21
REMARK    8  A    between atoms: _21  and  _22
REMARK    9  A    between atoms: _21  and  _24
REMARK   10  A    between atoms: _24  and  _25
REMARK   11  A    between atoms: _30  and  _31
REMARK   12  A    between atoms: _33  and  _35
REMARK   13  A    between atoms: _35  and  _36
REMARK   14  A    between atoms: _38  and  _40
REMARK   15  A    between atoms: _40  and  _41
REMARK   16  A    between atoms: _40  and  _43
REMARK   17  A    between atoms: _43  and  _44
REMARK   18  A    between atoms: _44  and  _45
REMARK   19  A    between atoms: _45  and  _46
REMARK   20  A    between atoms: _46  and  _47
REMARK   21  A    between atoms: _51  and  _53
REMARK   22  A    between atoms: _53  and  _54
REMARK   23  A    between atoms: _53  and  _56
REMARK   24  A    between atoms: _59  and  _61
REMARK   25  A    between atoms: _61  and  _62
REMARK   26  A    between atoms: _61  and  _64
REMARK   27  A    between atoms: _64  and  _65
REMARK   28  A    between atoms: _71  and  _73
REMARK   29  A    between atoms: _73  and  _74
REMARK   30  A    between atoms: _73  and  _76
REMARK   31  A    between atoms: _76  and  _77
REMARK   32  A    between atoms: _77  and  _78
REMARK   33  A    between atoms: _78  and  _79
REMARK   34  A    between atoms: _88  and  _90
REMARK   35  A    between atoms: _90  and  _91
REMARK   36  A    between atoms: _93  and  _95
REMARK   37  A    between atoms: _95  and  _96
REMARK   38  A    between atoms: _95  and  _98
REMARK   39  A    between atoms: _98  and  _99
REMARK   40  A    between atoms: _99  and  _100
REMARK   41  A    between atoms: _100  and  _101
REMARK   42  A    between atoms: _101  and  _102
REMARK   43  A    between atoms: _106  and  _108
REMARK   44  A    between atoms: _108  and  _109
REMARK   45  A    between atoms: _108  and  _111
REMARK   46  A    between atoms: _111  and  _112
REMARK   47  A    between atoms: _115  and  _117
REMARK   48  A    between atoms: _117  and  _118
REMARK   49  A    between atoms: _117  and  _120
REMARK   50  A    between atoms: _120  and  _121
REMARK   51  A    between atoms: _126  and  _127
REMARK   52  A    between atoms: _129  and  _131
REMARK   53  A    between atoms: _131  and  _132
REMARK   54  A    between atoms: _131  and  _134
REMARK   55  A    between atoms: _134  and  _135
REMARK   56  A    between atoms: _135  and  _136
REMARK   57  A    between atoms: _141  and  _143
REMARK   58  A    between atoms: _143  and  _144
REMARK   59  A    between atoms: _143  and  _146
REMARK   60  A    between atoms: _146  and  _147
REMARK   61  A    between atoms: _147  and  _148
REMARK   62  A    between atoms: _148  and  _149
REMARK   63  A    between atoms: _158  and  _160
REMARK   64  A    between atoms: _160  and  _161
REMARK   65  A    between atoms: _163  and  _165
REMARK   66  A    between atoms: _165  and  _166
REMARK   67  A    between atoms: _165  and  _168
REMARK   68  A    between atoms: _168  and  _169
REMARK   69  A    between atoms: _174  and  _176
REMARK   70  A    between atoms: _176  and  _177
REMARK   71  A    between atoms: _176  and  _179
REMARK   72  A    between atoms: _179  and  _180
REMARK   73  A    between atoms: _183  and  _185
REMARK   74  A    between atoms: _185  and  _186
REMARK   75  A    between atoms: _185  and  _188
REMARK   76  A    between atoms: _188  and  _189
REMARK   77  A    between atoms: _192  and  _194
REMARK   78  A    between atoms: _194  and  _195
REMARK   79  A    between atoms: _194  and  _197
REMARK   80  A    between atoms: _197  and  _198
REMARK   81  A    between atoms: _203  and  _205
REMARK   82  A    between atoms: _205  and  _206
REMARK   83  A    between atoms: _205  and  _208
REMARK   84  A    between atoms: _208  and  _209
REMARK   85  A    between atoms: _212  and  _214
REMARK   86  A    between atoms: _214  and  _215
REMARK   87  A    between atoms: _214  and  _217
REMARK   88  A    between atoms: _217  and  _218
REMARK   89  A    between atoms: _223  and  _225
REMARK   90  A    between atoms: _225  and  _226
REMARK   91  A    between atoms: _228  and  _230
REMARK   92  A    between atoms: _230  and  _231
REMARK   93  A    between atoms: _230  and  _233
REMARK   94  A    between atoms: _233  and  _234
REMARK   95  A    between atoms: _238  and  ZN_939
REMARK   96  A    between atoms: _239  and  _241
REMARK   97  A    between atoms: _241  and  _242
REMARK   98  A    between atoms: _241  and  _244
REMARK   99  A    between atoms: _244  and  _245
REMARK  100  A    between atoms: _248  and  _250
REMARK  101  A    between atoms: _250  and  _251
REMARK  102  A    between atoms: _250  and  _253
REMARK  103  A    between atoms: _253  and  _254
REMARK  104  A    between atoms: _264  and  _266
REMARK  105  A    between atoms: _266  and  _267
REMARK  106  A    between atoms: _266  and  _269
REMARK  107  A    between atoms: _269  and  _270
REMARK  108  A    between atoms: _273  and  _275
REMARK  109  A    between atoms: _275  and  _276
REMARK  110  A    between atoms: _275  and  _278
REMARK  111  A    between atoms: _278  and  _279
REMARK  112  A    between atoms: _279  and  _280
REMARK  113  A    between atoms: _279  and  _281
REMARK  114  A    between atoms: _280  and  ZN_939
REMARK  115  A    between atoms: _281  and  ZN_938
REMARK  116  A    between atoms: _283  and  _284
REMARK  117  A    between atoms: _289  and  _291
REMARK  118  A    between atoms: _291  and  _292
REMARK  119  A    between atoms: _295  and  _297
REMARK  120  A    between atoms: _297  and  _298
REMARK  121  A    between atoms: _297  and  _300
REMARK  122  A    between atoms: _300  and  _301
REMARK  123  A    between atoms: _301  and  _302
REMARK  124  A    between atoms: _305  and  _307
REMARK  125  A    between atoms: _307  and  _308
REMARK  126  A    between atoms: _307  and  _310
REMARK  127  A    between atoms: _310  and  _311
REMARK  128  A    between atoms: _311  and  _312
REMARK  129  A    between atoms: _312  and  _314
REMARK  130  A    between atoms: _314  and  ZN_938
REMARK  131  A    between atoms: _315  and  _317
REMARK  132  A    between atoms: _317  and  _318
REMARK  133  A    between atoms: _317  and  _320
REMARK  134  A    between atoms: _320  and  _321
REMARK  135  A    between atoms: _327  and  _329
REMARK  136  A    between atoms: _329  and  _330
REMARK  137  A    between atoms: _332  and  _334
REMARK  138  A    between atoms: _334  and  _335
REMARK  139  A    between atoms: _334  and  _337
REMARK  140  A    between atoms: _337  and  _338
REMARK  141  A    between atoms: _341  and  _343
REMARK  142  A    between atoms: _343  and  _344
REMARK  143  A    between atoms: _343  and  _346
REMARK  144  A    between atoms: _346  and  _347
REMARK  145  A    between atoms: _350  and  _352
REMARK  146  A    between atoms: _352  and  _353
REMARK  147  A    between atoms: _352  and  _355
REMARK  148  A    between atoms: _355  and  _356
REMARK  149  A    between atoms: _361  and  _363
REMARK  150  A    between atoms: _363  and  _364
REMARK  151  A    between atoms: _363  and  _366
REMARK  152  A    between atoms: _366  and  _367
REMARK  153  A    between atoms: _367  and  _369
REMARK  154  A    between atoms: _369  and  ZN_939
REMARK  155  A    between atoms: _370  and  _372
REMARK  156  A    between atoms: _372  and  _373
REMARK  157  A    between atoms: _372  and  _375
REMARK  158  A    between atoms: _375  and  _376
REMARK  159  A    between atoms: _378  and  _380
REMARK  160  A    between atoms: _380  and  _381
REMARK  161  A    between atoms: _380  and  _383
REMARK  162  A    between atoms: _383  and  _384
REMARK  163  A    between atoms: _386  and  _388
REMARK  164  A    between atoms: _388  and  _389
REMARK  165  A    between atoms: _388  and  _391
REMARK  166  A    between atoms: _391  and  _392
REMARK  167  A    between atoms: _395  and  _397
REMARK  168  A    between atoms: _397  and  _398
REMARK  169  A    between atoms: _397  and  _400
REMARK  170  A    between atoms: _400  and  _401
REMARK  171  A    between atoms: _401  and  _402
REMARK  172  A    between atoms: _405  and  _407
REMARK  173  A    between atoms: _407  and  _408
REMARK  174  A    between atoms: _407  and  _410
REMARK  175  A    between atoms: _410  and  _411
REMARK  176  A    between atoms: _416  and  _417
REMARK  177  A    between atoms: _419  and  _421
REMARK  178  A    between atoms: _421  and  _422
REMARK  179  A    between atoms: _421  and  _424
REMARK  180  A    between atoms: _424  and  _425
REMARK  181  A    between atoms: _428  and  _430
REMARK  182  A    between atoms: _430  and  _431
REMARK  183  A    between atoms: _430  and  _433
REMARK  184  A    between atoms: _433  and  _434
REMARK  185  A    between atoms: _437  and  _439
REMARK  186  A    between atoms: _439  and  _440
REMARK  187  A    between atoms: _439  and  _442
REMARK  188  A    between atoms: _442  and  _443
REMARK  189  A    between atoms: _443  and  _444
REMARK  190  A    between atoms: _444  and  _445
REMARK  191  A    between atoms: _454  and  _456
REMARK  192  A    between atoms: _456  and  _457
REMARK  193  A    between atoms: _456  and  _459
REMARK  194  A    between atoms: _462  and  _464
REMARK  195  A    between atoms: _464  and  _465
REMARK  196  A    between atoms: _464  and  _467
REMARK  197  A    between atoms: _467  and  _468
REMARK  198  A    between atoms: _471  and  _473
REMARK  199  A    between atoms: _473  and  _474
REMARK  200  A    between atoms: _473  and  _476
REMARK  201  A    between atoms: _476  and  _477
REMARK  202  A    between atoms: _487  and  _489
REMARK  203  A    between atoms: _489  and  _490
REMARK  204  A    between atoms: _489  and  _492
REMARK  205  A    between atoms: _492  and  _493
REMARK  206  A    between atoms: _493  and  _494
REMARK  207  A    between atoms: _494  and  _495
REMARK  208  A    between atoms: _495  and  _496
REMARK  209  A    between atoms: _500  and  _502
REMARK  210  A    between atoms: _502  and  _503
REMARK  211  A    between atoms: _502  and  _505
REMARK  212  A    between atoms: _505  and  _506
REMARK  213  A    between atoms: _509  and  _510
REMARK  214  A    between atoms: _516  and  _517
REMARK  215  A    between atoms: _522  and  _524
REMARK  216  A    between atoms: _524  and  _525
REMARK  217  A    between atoms: _524  and  _527
REMARK  218  A    between atoms: _527  and  _528
REMARK  219  A    between atoms: _528  and  _529
REMARK  220  A    between atoms: _529  and  _530
REMARK  221  A    between atoms: _539  and  _541
REMARK  222  A    between atoms: _541  and  _542
REMARK  223  A    between atoms: _541  and  _544
REMARK  224  A    between atoms: _544  and  _545
REMARK  225  A    between atoms: _548  and  _550
REMARK  226  A    between atoms: _550  and  _551
REMARK  227  A    between atoms: _550  and  _553
REMARK  228  A    between atoms: _553  and  _554
REMARK  229  A    between atoms: _556  and  _558
REMARK  230  A    between atoms: _558  and  _559
REMARK  231  A    between atoms: _558  and  _561
REMARK  232  A    between atoms: _561  and  _562
REMARK  233  A    between atoms: _562  and  _563
REMARK  234  A    between atoms: _563  and  _564
REMARK  235  A    between atoms: _564  and  _565
REMARK  236  A    between atoms: _569  and  _571
REMARK  237  A    between atoms: _571  and  _572
REMARK  238  A    between atoms: _571  and  _574
REMARK  239  A    between atoms: _574  and  _575
REMARK  240  A    between atoms: _578  and  _580
REMARK  241  A    between atoms: _580  and  _581
REMARK  242  A    between atoms: _583  and  _585
REMARK  243  A    between atoms: _585  and  _586
REMARK  244  A    between atoms: _585  and  _588
REMARK  245  A    between atoms: _588  and  _589
REMARK  246  A    between atoms: _591  and  _593
REMARK  247  A    between atoms: _593  and  _594
REMARK  248  A    between atoms: _596  and  _598
REMARK  249  A    between atoms: _598  and  _599
REMARK  250  A    between atoms: _598  and  _601
REMARK  251  A    between atoms: _601  and  _602
REMARK  252  A    between atoms: _607  and  _609
REMARK  253  A    between atoms: _609  and  _610
REMARK  254  A    between atoms: _609  and  _612
REMARK  255  A    between atoms: _612  and  _613
REMARK  256  A    between atoms: _616  and  _618
REMARK  257  A    between atoms: _618  and  _619
REMARK  258  A    between atoms: _618  and  _621
REMARK  259  A    between atoms: _621  and  _622
REMARK  260  A    between atoms: _628  and  _630
REMARK  261  A    between atoms: _630  and  _631
REMARK  262  A    between atoms: _630  and  _633
REMARK  263  A    between atoms: _633  and  _634
REMARK  264  A    between atoms: _634  and  _635
REMARK  265  A    between atoms: _638  and  _640
REMARK  266  A    between atoms: _640  and  _641
REMARK  267  A    between atoms: _640  and  _643
REMARK  268  A    between atoms: _643  and  _644
REMARK  269  A    between atoms: _644  and  _645
REMARK  270  A    between atoms: _645  and  _646
REMARK  271  A    between atoms: _655  and  _657
REMARK  272  A    between atoms: _657  and  _658
REMARK  273  A    between atoms: _657  and  _660
REMARK  274  A    between atoms: _660  and  _661
REMARK  275  A    between atoms: _661  and  _662
REMARK  276  A    between atoms: _662  and  _663
REMARK  277  A    between atoms: _672  and  _674
REMARK  278  A    between atoms: _674  and  _675
REMARK  279  A    between atoms: _674  and  _677
REMARK  280  A    between atoms: _677  and  _678
REMARK  281  A    between atoms: _683  and  _684
REMARK  282  A    between atoms: _686  and  _688
REMARK  283  A    between atoms: _688  and  _689
REMARK  284  A    between atoms: _688  and  _691
REMARK  285  A    between atoms: _691  and  _692
REMARK  286  A    between atoms: _695  and  _697
REMARK  287  A    between atoms: _697  and  _698
REMARK  288  A    between atoms: _697  and  _700
REMARK  289  A    between atoms: _700  and  _701
REMARK  290  A    between atoms: _701  and  _702
REMARK  291  A    between atoms: _702  and  _703
REMARK  292  A    between atoms: _703  and  _704
REMARK  293  A    between atoms: _708  and  _710
REMARK  294  A    between atoms: _710  and  _711
REMARK  295  A    between atoms: _710  and  _713
REMARK  296  A    between atoms: _713  and  _714
REMARK  297  A    between atoms: _719  and  _721
REMARK  298  A    between atoms: _721  and  _722
REMARK  299  A    between atoms: _721  and  _724
REMARK  300  A    between atoms: _724  and  _725
REMARK  301  A    between atoms: _735  and  _737
REMARK  302  A    between atoms: _737  and  _738
REMARK  303  A    between atoms: _737  and  _740
REMARK  304  A    between atoms: _740  and  _741
REMARK  305  A    between atoms: _741  and  _742
REMARK  306  A    between atoms: _745  and  _747
REMARK  307  A    between atoms: _747  and  _748
REMARK  308  A    between atoms: _747  and  _750
REMARK  309  A    between atoms: _750  and  _751
REMARK  310  A    between atoms: _754  and  _756
REMARK  311  A    between atoms: _756  and  _757
REMARK  312  A    between atoms: _756  and  _759
REMARK  313  A    between atoms: _759  and  _760
REMARK  314  A    between atoms: _765  and  _767
REMARK  315  A    between atoms: _767  and  _768
REMARK  316  A    between atoms: _767  and  _770
REMARK  317  A    between atoms: _770  and  _771
REMARK  318  A    between atoms: _777  and  _779
REMARK  319  A    between atoms: _779  and  _780
REMARK  320  A    between atoms: _779  and  _782
REMARK  321  A    between atoms: _782  and  _783
REMARK  322  A    between atoms: _785  and  _787
REMARK  323  A    between atoms: _787  and  _788
REMARK  324  A    between atoms: _790  and  _792
REMARK  325  A    between atoms: _792  and  _793
REMARK  326  A    between atoms: _792  and  _795
REMARK  327  A    between atoms: _795  and  _796
REMARK  328  A    between atoms: _801  and  _802
REMARK  329  A    between atoms: _804  and  _806
REMARK  330  A    between atoms: _806  and  _807
REMARK  331  A    between atoms: _806  and  _809
REMARK  332  A    between atoms: _809  and  _810
REMARK  333  A    between atoms: _815  and  _816
REMARK  334  A    between atoms: _818  and  _820
REMARK  335  A    between atoms: _820  and  _821
REMARK  336  A    between atoms: _820  and  _823
REMARK  337  A    between atoms: _823  and  _824
REMARK  338  A    between atoms: _828  and  ZN_938
REMARK  339  A    between atoms: _829  and  _831
REMARK  340  A    between atoms: _831  and  _832
REMARK  341  A    between atoms: _831  and  _834
REMARK  342  A    between atoms: _834  and  _835
REMARK  343  A    between atoms: _835  and  _836
REMARK  344  A    between atoms: _839  and  _841
REMARK  345  A    between atoms: _841  and  _842
REMARK  346  A    between atoms: _841  and  _844
REMARK  347  A    between atoms: _844  and  _845
REMARK  348  A    between atoms: _845  and  _846
REMARK  349  A    between atoms: _846  and  _847
REMARK  350  A    between atoms: _856  and  _858
REMARK  351  A    between atoms: _858  and  _859
REMARK  352  A    between atoms: _858  and  _861
REMARK  353  A    between atoms: _861  and  _862
REMARK  354  A    between atoms: _867  and  _868
REMARK  355  A    between atoms: _870  and  _872
REMARK  356  A    between atoms: _872  and  _873
REMARK  357  A    between atoms: _872  and  _875
REMARK  358  A    between atoms: _875  and  _876
REMARK  359  A    between atoms: _878  and  _880
REMARK  360  A    between atoms: _880  and  _881
REMARK  361  A    between atoms: _880  and  _883
REMARK  362  A    between atoms: _883  and  _884
REMARK  363  A    between atoms: _889  and  _891
REMARK  364  A    between atoms: _891  and  _892
REMARK  365  A    between atoms: _891  and  _894
REMARK  366  A    between atoms: _894  and  _895
REMARK  367  A    between atoms: _900  and  _902
REMARK  368  A    between atoms: _902  and  _903
REMARK  369  A    between atoms: _902  and  _905
REMARK  370  A    between atoms: _905  and  _906
REMARK  371  A    between atoms: _906  and  _907
REMARK  372  A    between atoms: _907  and  _908
REMARK  373  A    between atoms: _908  and  _909
REMARK  374  A    between atoms: _913  and  _915
REMARK  375  A    between atoms: _915  and  _916
REMARK  376  A    between atoms: _915  and  _918
REMARK  377  A    between atoms: _918  and  _919
REMARK  378  A    between atoms: _924  and  _925
REMARK  379  A    between atoms: _927  and  _929
REMARK  380  A    between atoms: _929  and  _930
REMARK  381  A    between atoms: _933  and  _935
REMARK  382  A    between atoms: _935  and  _936
REMARK                            x       y       z     vdW  Elec       q    Type
REMARK                         _______ _______ _______ _____ _____    ______ ____
ROOT
ATOM      1  O   HOH     1      22.407  49.823  44.913  0.00  0.00    +0.000 OA
ENDROOT
TORSDOF 0
REMARK  Name = ../refined-set-2016/2xeg/2xeg_pocket.pdb
REMARK  382 active torsions:
REMARK  status: ('A' for Active; 'I' for Inactive)
REMARK    1  A    between atoms: _1  and  _3
REMARK    2  A    between atoms: _3  and  _4
REMARK    3  A    between atoms: _7  and  _9
REMARK    4  A    between atoms: _9  and  _10
REMARK    5  A    between atoms: _9  and  _12
REMARK    6  A    between atoms: _12  and  _13
REMARK    7  A    between atoms: _19  and  _21
REMARK    8  A    between atoms: _21  and  _22
REMARK    9  A    between atoms: _21  and  _24
REMARK   10  A    between atoms: _24  and  _25
REMARK   11  A    between atoms: _30  and  _31
REMARK   12  A    between atoms: _33  and  _35
REMARK   13  A    between atoms: _35  and  _36
REMARK   14  A    between atoms: _38  and  _40
REMARK   15  A    between atoms: _40  and  _41
REMARK   16  A    between atoms: _40  and  _43
REMARK   17  A    between atoms: _43  and  _44
REMARK   18  A    between atoms: _44  and  _45
REMARK   19  A    between atoms: _45  and  _46
REMARK   20  A    between atoms: _46  and  _47
REMARK   21  A    between atoms: _51  and  _53
REMARK   22  A    between atoms: _53  and  _54
REMARK   23  A    between atoms: _53  and  _56
REMARK   24  A    between atoms: _59  and  _61
REMARK   25  A    between atoms: _61  and  _62
REMARK   26  A    between atoms: _61  and  _64
REMARK   27  A    between atoms: _64  and  _65
REMARK   28  A    between atoms: _71  and  _73
REMARK   29  A    between atoms: _73  and  _74
REMARK   30  A    between atoms: _73  and  _76
REMARK   31  A    between atoms: _76  and  _77
REMARK   32  A    between atoms: _77  and  _78
REMARK   33  A    between atoms: _78  and  _79
REMARK   34  A    between atoms: _88  and  _90
REMARK   35  A    between atoms: _90  and  _91
REMARK   36  A    between atoms: _93  and  _95
REMARK   37  A    between atoms: _95  and  _96
REMARK   38  A    between atoms: _95  and  _98
REMARK   39  A    between atoms: _98  and  _99
REMARK   40  A    between atoms: _99  and  _100
REMARK   41  A    between atoms: _100  and  _101
REMARK   42  A    between atoms: _101  and  _102
REMARK   43  A    between atoms: _106  and  _108
REMARK   44  A    between atoms: _108  and  _109
REMARK   45  A    between atoms: _108  and  _111
REMARK   46  A    between atoms: _111  and  _112
REMARK   47  A    between atoms: _115  and  _117
REMARK   48  A    between atoms: _117  and  _118
REMARK   49  A    between atoms: _117  and  _120
REMARK   50  A    between atoms: _120  and  _121
REMARK   51  A    between atoms: _126  and  _127
REMARK   52  A    between atoms: _129  and  _131
REMARK   53  A    between atoms: _131  and  _132
REMARK   54  A    between atoms: _131  and  _134
REMARK   55  A    between atoms: _134  and  _135
REMARK   56  A    between atoms: _135  and  _136
REMARK   57  A    between atoms: _141  and  _143
REMARK   58  A    between atoms: _143  and  _144
REMARK   59  A    between atoms: _143  and  _146
REMARK   60  A    between atoms: _146  and  _147
REMARK   61  A    between atoms: _147  and  _148
REMARK   62  A    between atoms: _148  and  _149
REMARK   63  A    between atoms: _158  and  _160
REMARK   64  A    between atoms: _160  and  _161
REMARK   65  A    between atoms: _163  and  _165
REMARK   66  A    between atoms: _165  and  _166
REMARK   67  A    between atoms: _165  and  _168
REMARK   68  A    between atoms: _168  and  _169
REMARK   69  A    between atoms: _174  and  _176
REMARK   70  A    between atoms: _176  and  _177
REMARK   71  A    between atoms: _176  and  _179
REMARK   72  A    between atoms: _179  and  _180
REMARK   73  A    between atoms: _183  and  _185
REMARK   74  A    between atoms: _185  and  _186
REMARK   75  A    between atoms: _185  and  _188
REMARK   76  A    between atoms: _188  and  _189
REMARK   77  A    between atoms: _192  and  _194
REMARK   78  A    between atoms: _194  and  _195
REMARK   79  A    between atoms: _194  and  _197
REMARK   80  A    between atoms: _197  and  _198
REMARK   81  A    between atoms: _203  and  _205
REMARK   82  A    between atoms: _205  and  _206
REMARK   83  A    between atoms: _205  and  _208
REMARK   84  A    between atoms: _208  and  _209
REMARK   85  A    between atoms: _212  and  _214
REMARK   86  A    between atoms: _214  and  _215
REMARK   87  A    between atoms: _214  and  _217
REMARK   88  A    between atoms: _217  and  _218
REMARK   89  A    between atoms: _223  and  _225
REMARK   90  A    between atoms: _225  and  _226
REMARK   91  A    between atoms: _228  and  _230
REMARK   92  A    between atoms: _230  and  _231
REMARK   93  A    between atoms: _230  and  _233
REMARK   94  A    between atoms: _233  and  _234
REMARK   95  A    between atoms: _238  and  ZN_939
REMARK   96  A    between atoms: _239  and  _241
REMARK   97  A    between atoms: _241  and  _242
REMARK   98  A    between atoms: _241  and  _244
REMARK   99  A    between atoms: _244  and  _245
REMARK  100  A    between atoms: _248  and  _250
REMARK  101  A    between atoms: _250  and  _251
REMARK  102  A    between atoms: _250  and  _253
REMARK  103  A    between atoms: _253  and  _254
REMARK  104  A    between atoms: _264  and  _266
REMARK  105  A    between atoms: _266  and  _267
REMARK  106  A    between atoms: _266  and  _269
REMARK  107  A    between atoms: _269  and  _270
REMARK  108  A    between atoms: _273  and  _275
REMARK  109  A    between atoms: _275  and  _276
REMARK  110  A    between atoms: _275  and  _278
REMARK  111  A    between atoms: _278  and  _279
REMARK  112  A    between atoms: _279  and  _280
REMARK  113  A    between atoms: _279  and  _281
REMARK  114  A    between atoms: _280  and  ZN_939
REMARK  115  A    between atoms: _281  and  ZN_938
REMARK  116  A    between atoms: _283  and  _284
REMARK  117  A    between atoms: _289  and  _291
REMARK  118  A    between atoms: _291  and  _292
REMARK  119  A    between atoms: _295  and  _297
REMARK  120  A    between atoms: _297  and  _298
REMARK  121  A    between atoms: _297  and  _300
REMARK  122  A    between atoms: _300  and  _301
REMARK  123  A    between atoms: _301  and  _302
REMARK  124  A    between atoms: _305  and  _307
REMARK  125  A    between atoms: _307  and  _308
REMARK  126  A    between atoms: _307  and  _310
REMARK  127  A    between atoms: _310  and  _311
REMARK  128  A    between atoms: _311  and  _312
REMARK  129  A    between atoms: _312  and  _314
REMARK  130  A    between atoms: _314  and  ZN_938
REMARK  131  A    between atoms: _315  and  _317
REMARK  132  A    between atoms: _317  and  _318
REMARK  133  A    between atoms: _317  and  _320
REMARK  134  A    between atoms: _320  and  _321
REMARK  135  A    between atoms: _327  and  _329
REMARK  136  A    between atoms: _329  and  _330
REMARK  137  A    between atoms: _332  and  _334
REMARK  138  A    between atoms: _334  and  _335
REMARK  139  A    between atoms: _334  and  _337
REMARK  140  A    between atoms: _337  and  _338
REMARK  141  A    between atoms: _341  and  _343
REMARK  142  A    between atoms: _343  and  _344
REMARK  143  A    between atoms: _343  and  _346
REMARK  144  A    between atoms: _346  and  _347
REMARK  145  A    between atoms: _350  and  _352
REMARK  146  A    between atoms: _352  and  _353
REMARK  147  A    between atoms: _352  and  _355
REMARK  148  A    between atoms: _355  and  _356
REMARK  149  A    between atoms: _361  and  _363
REMARK  150  A    between atoms: _363  and  _364
REMARK  151  A    between atoms: _363  and  _366
REMARK  152  A    between atoms: _366  and  _367
REMARK  153  A    between atoms: _367  and  _369
REMARK  154  A    between atoms: _369  and  ZN_939
REMARK  155  A    between atoms: _370  and  _372
REMARK  156  A    between atoms: _372  and  _373
REMARK  157  A    between atoms: _372  and  _375
REMARK  158  A    between atoms: _375  and  _376
REMARK  159  A    between atoms: _378  and  _380
REMARK  160  A    between atoms: _380  and  _381
REMARK  161  A    between atoms: _380  and  _383
REMARK  162  A    between atoms: _383  and  _384
REMARK  163  A    between atoms: _386  and  _388
REMARK  164  A    between atoms: _388  and  _389
REMARK  165  A    between atoms: _388  and  _391
REMARK  166  A    between atoms: _391  and  _392
REMARK  167  A    between atoms: _395  and  _397
REMARK  168  A    between atoms: _397  and  _398
REMARK  169  A    between atoms: _397  and  _400
REMARK  170  A    between atoms: _400  and  _401
REMARK  171  A    between atoms: _401  and  _402
REMARK  172  A    between atoms: _405  and  _407
REMARK  173  A    between atoms: _407  and  _408
REMARK  174  A    between atoms: _407  and  _410
REMARK  175  A    between atoms: _410  and  _411
REMARK  176  A    between atoms: _416  and  _417
REMARK  177  A    between atoms: _419  and  _421
REMARK  178  A    between atoms: _421  and  _422
REMARK  179  A    between atoms: _421  and  _424
REMARK  180  A    between atoms: _424  and  _425
REMARK  181  A    between atoms: _428  and  _430
REMARK  182  A    between atoms: _430  and  _431
REMARK  183  A    between atoms: _430  and  _433
REMARK  184  A    between atoms: _433  and  _434
REMARK  185  A    between atoms: _437  and  _439
REMARK  186  A    between atoms: _439  and  _440
REMARK  187  A    between atoms: _439  and  _442
REMARK  188  A    between atoms: _442  and  _443
REMARK  189  A    between atoms: _443  and  _444
REMARK  190  A    between atoms: _444  and  _445
REMARK  191  A    between atoms: _454  and  _456
REMARK  192  A    between atoms: _456  and  _457
REMARK  193  A    between atoms: _456  and  _459
REMARK  194  A    between atoms: _462  and  _464
REMARK  195  A    between atoms: _464  and  _465
REMARK  196  A    between atoms: _464  and  _467
REMARK  197  A    between atoms: _467  and  _468
REMARK  198  A    between atoms: _471  and  _473
REMARK  199  A    between atoms: _473  and  _474
REMARK  200  A    between atoms: _473  and  _476
REMARK  201  A    between atoms: _476  and  _477
REMARK  202  A    between atoms: _487  and  _489
REMARK  203  A    between atoms: _489  and  _490
REMARK  204  A    between atoms: _489  and  _492
REMARK  205  A    between atoms: _492  and  _493
REMARK  206  A    between atoms: _493  and  _494
REMARK  207  A    between atoms: _494  and  _495
REMARK  208  A    between atoms: _495  and  _496
REMARK  209  A    between atoms: _500  and  _502
REMARK  210  A    between atoms: _502  and  _503
REMARK  211  A    between atoms: _502  and  _505
REMARK  212  A    between atoms: _505  and  _506
REMARK  213  A    between atoms: _509  and  _510
REMARK  214  A    between atoms: _516  and  _517
REMARK  215  A    between atoms: _522  and  _524
REMARK  216  A    between atoms: _524  and  _525
REMARK  217  A    between atoms: _524  and  _527
REMARK  218  A    between atoms: _527  and  _528
REMARK  219  A    between atoms: _528  and  _529
REMARK  220  A    between atoms: _529  and  _530
REMARK  221  A    between atoms: _539  and  _541
REMARK  222  A    between atoms: _541  and  _542
REMARK  223  A    between atoms: _541  and  _544
REMARK  224  A    between atoms: _544  and  _545
REMARK  225  A    between atoms: _548  and  _550
REMARK  226  A    between atoms: _550  and  _551
REMARK  227  A    between atoms: _550  and  _553
REMARK  228  A    between atoms: _553  and  _554
REMARK  229  A    between atoms: _556  and  _558
REMARK  230  A    between atoms: _558  and  _559
REMARK  231  A    between atoms: _558  and  _561
REMARK  232  A    between atoms: _561  and  _562
REMARK  233  A    between atoms: _562  and  _563
REMARK  234  A    between atoms: _563  and  _564
REMARK  235  A    between atoms: _564  and  _565
REMARK  236  A    between atoms: _569  and  _571
REMARK  237  A    between atoms: _571  and  _572
REMARK  238  A    between atoms: _571  and  _574
REMARK  239  A    between atoms: _574  and  _575
REMARK  240  A    between atoms: _578  and  _580
REMARK  241  A    between atoms: _580  and  _581
REMARK  242  A    between atoms: _583  and  _585
REMARK  243  A    between atoms: _585  and  _586
REMARK  244  A    between atoms: _585  and  _588
REMARK  245  A    between atoms: _588  and  _589
REMARK  246  A    between atoms: _591  and  _593
REMARK  247  A    between atoms: _593  and  _594
REMARK  248  A    between atoms: _596  and  _598
REMARK  249  A    between atoms: _598  and  _599
REMARK  250  A    between atoms: _598  and  _601
REMARK  251  A    between atoms: _601  and  _602
REMARK  252  A    between atoms: _607  and  _609
REMARK  253  A    between atoms: _609  and  _610
REMARK  254  A    between atoms: _609  and  _612
REMARK  255  A    between atoms: _612  and  _613
REMARK  256  A    between atoms: _616  and  _618
REMARK  257  A    between atoms: _618  and  _619
REMARK  258  A    between atoms: _618  and  _621
REMARK  259  A    between atoms: _621  and  _622
REMARK  260  A    between atoms: _628  and  _630
REMARK  261  A    between atoms: _630  and  _631
REMARK  262  A    between atoms: _630  and  _633
REMARK  263  A    between atoms: _633  and  _634
REMARK  264  A    between atoms: _634  and  _635
REMARK  265  A    between atoms: _638  and  _640
REMARK  266  A    between atoms: _640  and  _641
REMARK  267  A    between atoms: _640  and  _643
REMARK  268  A    between atoms: _643  and  _644
REMARK  269  A    between atoms: _644  and  _645
REMARK  270  A    between atoms: _645  and  _646
REMARK  271  A    between atoms: _655  and  _657
REMARK  272  A    between atoms: _657  and  _658
REMARK  273  A    between atoms: _657  and  _660
REMARK  274  A    between atoms: _660  and  _661
REMARK  275  A    between atoms: _661  and  _662
REMARK  276  A    between atoms: _662  and  _663
REMARK  277  A    between atoms: _672  and  _674
REMARK  278  A    between atoms: _674  and  _675
REMARK  279  A    between atoms: _674  and  _677
REMARK  280  A    between atoms: _677  and  _678
REMARK  281  A    between atoms: _683  and  _684
REMARK  282  A    between atoms: _686  and  _688
REMARK  283  A    between atoms: _688  and  _689
REMARK  284  A    between atoms: _688  and  _691
REMARK  285  A    between atoms: _691  and  _692
REMARK  286  A    between atoms: _695  and  _697
REMARK  287  A    between atoms: _697  and  _698
REMARK  288  A    between atoms: _697  and  _700
REMARK  289  A    between atoms: _700  and  _701
REMARK  290  A    between atoms: _701  and  _702
REMARK  291  A    between atoms: _702  and  _703
REMARK  292  A    between atoms: _703  and  _704
REMARK  293  A    between atoms: _708  and  _710
REMARK  294  A    between atoms: _710  and  _711
REMARK  295  A    between atoms: _710  and  _713
REMARK  296  A    between atoms: _713  and  _714
REMARK  297  A    between atoms: _719  and  _721
REMARK  298  A    between atoms: _721  and  _722
REMARK  299  A    between atoms: _721  and  _724
REMARK  300  A    between atoms: _724  and  _725
REMARK  301  A    between atoms: _735  and  _737
REMARK  302  A    between atoms: _737  and  _738
REMARK  303  A    between atoms: _737  and  _740
REMARK  304  A    between atoms: _740  and  _741
REMARK  305  A    between atoms: _741  and  _742
REMARK  306  A    between atoms: _745  and  _747
REMARK  307  A    between atoms: _747  and  _748
REMARK  308  A    between atoms: _747  and  _750
REMARK  309  A    between atoms: _750  and  _751
REMARK  310  A    between atoms: _754  and  _756
REMARK  311  A    between atoms: _756  and  _757
REMARK  312  A    between atoms: _756  and  _759
REMARK  313  A    between atoms: _759  and  _760
REMARK  314  A    between atoms: _765  and  _767
REMARK  315  A    between atoms: _767  and  _768
REMARK  316  A    between atoms: _767  and  _770
REMARK  317  A    between atoms: _770  and  _771
REMARK  318  A    between atoms: _777  and  _779
REMARK  319  A    between atoms: _779  and  _780
REMARK  320  A    between atoms: _779  and  _782
REMARK  321  A    between atoms: _782  and  _783
REMARK  322  A    between atoms: _785  and  _787
REMARK  323  A    between atoms: _787  and  _788
REMARK  324  A    between atoms: _790  and  _792
REMARK  325  A    between atoms: _792  and  _793
REMARK  326  A    between atoms: _792  and  _795
REMARK  327  A    between atoms: _795  and  _796
REMARK  328  A    between atoms: _801  and  _802
REMARK  329  A    between atoms: _804  and  _806
REMARK  330  A    between atoms: _806  and  _807
REMARK  331  A    between atoms: _806  and  _809
REMARK  332  A    between atoms: _809  and  _810
REMARK  333  A    between atoms: _815  and  _816
REMARK  334  A    between atoms: _818  and  _820
REMARK  335  A    between atoms: _820  and  _821
REMARK  336  A    between atoms: _820  and  _823
REMARK  337  A    between atoms: _823  and  _824
REMARK  338  A    between atoms: _828  and  ZN_938
REMARK  339  A    between atoms: _829  and  _831
REMARK  340  A    between atoms: _831  and  _832
REMARK  341  A    between atoms: _831  and  _834
REMARK  342  A    between atoms: _834  and  _835
REMARK  343  A    between atoms: _835  and  _836
REMARK  344  A    between atoms: _839  and  _841
REMARK  345  A    between atoms: _841  and  _842
REMARK  346  A    between atoms: _841  and  _844
REMARK  347  A    between atoms: _844  and  _845
REMARK  348  A    between atoms: _845  and  _846
REMARK  349  A    between atoms: _846  and  _847
REMARK  350  A    between atoms: _856  and  _858
REMARK  351  A    between atoms: _858  and  _859
REMARK  352  A    between atoms: _858  and  _861
REMARK  353  A    between atoms: _861  and  _862
REMARK  354  A    between atoms: _867  and  _868
REMARK  355  A    between atoms: _870  and  _872
REMARK  356  A    between atoms: _872  and  _873
REMARK  357  A    between atoms: _872  and  _875
REMARK  358  A    between atoms: _875  and  _876
REMARK  359  A    between atoms: _878  and  _880
REMARK  360  A    between atoms: _880  and  _881
REMARK  361  A    between atoms: _880  and  _883
REMARK  362  A    between atoms: _883  and  _884
REMARK  363  A    between atoms: _889  and  _891
REMARK  364  A    between atoms: _891  and  _892
REMARK  365  A    between atoms: _891  and  _894
REMARK  366  A    between atoms: _894  and  _895
REMARK  367  A    between atoms: _900  and  _902
REMARK  368  A    between atoms: _902  and  _903
REMARK  369  A    between atoms: _902  and  _905
REMARK  370  A    between atoms: _905  and  _906
REMARK  371  A    between atoms: _906  and  _907
REMARK  372  A    between atoms: _907  and  _908
REMARK  373  A    between atoms: _908  and  _909
REMARK  374  A    between atoms: _913  and  _915
REMARK  375  A    between atoms: _915  and  _916
REMARK  376  A    between atoms: _915  and  _918
REMARK  377  A    between atoms: _918  and  _919
REMARK  378  A    between atoms: _924  and  _925
REMARK  379  A    between atoms: _927  and  _929
REMARK  380  A    between atoms: _929  and  _930
REMARK  381  A    between atoms: _933  and  _935
REMARK  382  A    between atoms: _935  and  _936
REMARK                            x       y       z     vdW  Elec       q    Type
REMARK                         _______ _______ _______ _____ _____    ______ ____
ROOT
ATOM      1  O   HOH     1      20.754  53.107  47.504  0.00  0.00    +0.000 OA
ENDROOT
TORSDOF 0
REMARK  Name = ../refined-set-2016/2xeg/2xeg_pocket.pdb
REMARK  382 active torsions:
REMARK  status: ('A' for Active; 'I' for Inactive)
REMARK    1  A    between atoms: _1  and  _3
REMARK    2  A    between atoms: _3  and  _4
REMARK    3  A    between atoms: _7  and  _9
REMARK    4  A    between atoms: _9  and  _10
REMARK    5  A    between atoms: _9  and  _12
REMARK    6  A    between atoms: _12  and  _13
REMARK    7  A    between atoms: _19  and  _21
REMARK    8  A    between atoms: _21  and  _22
REMARK    9  A    between atoms: _21  and  _24
REMARK   10  A    between atoms: _24  and  _25
REMARK   11  A    between atoms: _30  and  _31
REMARK   12  A    between atoms: _33  and  _35
REMARK   13  A    between atoms: _35  and  _36
REMARK   14  A    between atoms: _38  and  _40
REMARK   15  A    between atoms: _40  and  _41
REMARK   16  A    between atoms: _40  and  _43
REMARK   17  A    between atoms: _43  and  _44
REMARK   18  A    between atoms: _44  and  _45
REMARK   19  A    between atoms: _45  and  _46
REMARK   20  A    between atoms: _46  and  _47
REMARK   21  A    between atoms: _51  and  _53
REMARK   22  A    between atoms: _53  and  _54
REMARK   23  A    between atoms: _53  and  _56
REMARK   24  A    between atoms: _59  and  _61
REMARK   25  A    between atoms: _61  and  _62
REMARK   26  A    between atoms: _61  and  _64
REMARK   27  A    between atoms: _64  and  _65
REMARK   28  A    between atoms: _71  and  _73
REMARK   29  A    between atoms: _73  and  _74
REMARK   30  A    between atoms: _73  and  _76
REMARK   31  A    between atoms: _76  and  _77
REMARK   32  A    between atoms: _77  and  _78
REMARK   33  A    between atoms: _78  and  _79
REMARK   34  A    between atoms: _88  and  _90
REMARK   35  A    between atoms: _90  and  _91
REMARK   36  A    between atoms: _93  and  _95
REMARK   37  A    between atoms: _95  and  _96
REMARK   38  A    between atoms: _95  and  _98
REMARK   39  A    between atoms: _98  and  _99
REMARK   40  A    between atoms: _99  and  _100
REMARK   41  A    between atoms: _100  and  _101
REMARK   42  A    between atoms: _101  and  _102
REMARK   43  A    between atoms: _106  and  _108
REMARK   44  A    between atoms: _108  and  _109
REMARK   45  A    between atoms: _108  and  _111
REMARK   46  A    between atoms: _111  and  _112
REMARK   47  A    between atoms: _115  and  _117
REMARK   48  A    between atoms: _117  and  _118
REMARK   49  A    between atoms: _117  and  _120
REMARK   50  A    between atoms: _120  and  _121
REMARK   51  A    between atoms: _126  and  _127
REMARK   52  A    between atoms: _129  and  _131
REMARK   53  A    between atoms: _131  and  _132
REMARK   54  A    between atoms: _131  and  _134
REMARK   55  A    between atoms: _134  and  _135
REMARK   56  A    between atoms: _135  and  _136
REMARK   57  A    between atoms: _141  and  _143
REMARK   58  A    between atoms: _143  and  _144
REMARK   59  A    between atoms: _143  and  _146
REMARK   60  A    between atoms: _146  and  _147
REMARK   61  A    between atoms: _147  and  _148
REMARK   62  A    between atoms: _148  and  _149
REMARK   63  A    between atoms: _158  and  _160
REMARK   64  A    between atoms: _160  and  _161
REMARK   65  A    between atoms: _163  and  _165
REMARK   66  A    between atoms: _165  and  _166
REMARK   67  A    between atoms: _165  and  _168
REMARK   68  A    between atoms: _168  and  _169
REMARK   69  A    between atoms: _174  and  _176
REMARK   70  A    between atoms: _176  and  _177
REMARK   71  A    between atoms: _176  and  _179
REMARK   72  A    between atoms: _179  and  _180
REMARK   73  A    between atoms: _183  and  _185
REMARK   74  A    between atoms: _185  and  _186
REMARK   75  A    between atoms: _185  and  _188
REMARK   76  A    between atoms: _188  and  _189
REMARK   77  A    between atoms: _192  and  _194
REMARK   78  A    between atoms: _194  and  _195
REMARK   79  A    between atoms: _194  and  _197
REMARK   80  A    between atoms: _197  and  _198
REMARK   81  A    between atoms: _203  and  _205
REMARK   82  A    between atoms: _205  and  _206
REMARK   83  A    between atoms: _205  and  _208
REMARK   84  A    between atoms: _208  and  _209
REMARK   85  A    between atoms: _212  and  _214
REMARK   86  A    between atoms: _214  and  _215
REMARK   87  A    between atoms: _214  and  _217
REMARK   88  A    between atoms: _217  and  _218
REMARK   89  A    between atoms: _223  and  _225
REMARK   90  A    between atoms: _225  and  _226
REMARK   91  A    between atoms: _228  and  _230
REMARK   92  A    between atoms: _230  and  _231
REMARK   93  A    between atoms: _230  and  _233
REMARK   94  A    between atoms: _233  and  _234
REMARK   95  A    between atoms: _238  and  ZN_939
REMARK   96  A    between atoms: _239  and  _241
REMARK   97  A    between atoms: _241  and  _242
REMARK   98  A    between atoms: _241  and  _244
REMARK   99  A    between atoms: _244  and  _245
REMARK  100  A    between atoms: _248  and  _250
REMARK  101  A    between atoms: _250  and  _251
REMARK  102  A    between atoms: _250  and  _253
REMARK  103  A    between atoms: _253  and  _254
REMARK  104  A    between atoms: _264  and  _266
REMARK  105  A    between atoms: _266  and  _267
REMARK  106  A    between atoms: _266  and  _269
REMARK  107  A    between atoms: _269  and  _270
REMARK  108  A    between atoms: _273  and  _275
REMARK  109  A    between atoms: _275  and  _276
REMARK  110  A    between atoms: _275  and  _278
REMARK  111  A    between atoms: _278  and  _279
REMARK  112  A    between atoms: _279  and  _280
REMARK  113  A    between atoms: _279  and  _281
REMARK  114  A    between atoms: _280  and  ZN_939
REMARK  115  A    between atoms: _281  and  ZN_938
REMARK  116  A    between atoms: _283  and  _284
REMARK  117  A    between atoms: _289  and  _291
REMARK  118  A    between atoms: _291  and  _292
REMARK  119  A    between atoms: _295  and  _297
REMARK  120  A    between atoms: _297  and  _298
REMARK  121  A    between atoms: _297  and  _300
REMARK  122  A    between atoms: _300  and  _301
REMARK  123  A    between atoms: _301  and  _302
REMARK  124  A    between atoms: _305  and  _307
REMARK  125  A    between atoms: _307  and  _308
REMARK  126  A    between atoms: _307  and  _310
REMARK  127  A    between atoms: _310  and  _311
REMARK  128  A    between atoms: _311  and  _312
REMARK  129  A    between atoms: _312  and  _314
REMARK  130  A    between atoms: _314  and  ZN_938
REMARK  131  A    between atoms: _315  and  _317
REMARK  132  A    between atoms: _317  and  _318
REMARK  133  A    between atoms: _317  and  _320
REMARK  134  A    between atoms: _320  and  _321
REMARK  135  A    between atoms: _327  and  _329
REMARK  136  A    between atoms: _329  and  _330
REMARK  137  A    between atoms: _332  and  _334
REMARK  138  A    between atoms: _334  and  _335
REMARK  139  A    between atoms: _334  and  _337
REMARK  140  A    between atoms: _337  and  _338
REMARK  141  A    between atoms: _341  and  _343
REMARK  142  A    between atoms: _343  and  _344
REMARK  143  A    between atoms: _343  and  _346
REMARK  144  A    between atoms: _346  and  _347
REMARK  145  A    between atoms: _350  and  _352
REMARK  146  A    between atoms: _352  and  _353
REMARK  147  A    between atoms: _352  and  _355
REMARK  148  A    between atoms: _355  and  _356
REMARK  149  A    between atoms: _361  and  _363
REMARK  150  A    between atoms: _363  and  _364
REMARK  151  A    between atoms: _363  and  _366
REMARK  152  A    between atoms: _366  and  _367
REMARK  153  A    between atoms: _367  and  _369
REMARK  154  A    between atoms: _369  and  ZN_939
REMARK  155  A    between atoms: _370  and  _372
REMARK  156  A    between atoms: _372  and  _373
REMARK  157  A    between atoms: _372  and  _375
REMARK  158  A    between atoms: _375  and  _376
REMARK  159  A    between atoms: _378  and  _380
REMARK  160  A    between atoms: _380  and  _381
REMARK  161  A    between atoms: _380  and  _383
REMARK  162  A    between atoms: _383  and  _384
REMARK  163  A    between atoms: _386  and  _388
REMARK  164  A    between atoms: _388  and  _389
REMARK  165  A    between atoms: _388  and  _391
REMARK  166  A    between atoms: _391  and  _392
REMARK  167  A    between atoms: _395  and  _397
REMARK  168  A    between atoms: _397  and  _398
REMARK  169  A    between atoms: _397  and  _400
REMARK  170  A    between atoms: _400  and  _401
REMARK  171  A    between atoms: _401  and  _402
REMARK  172  A    between atoms: _405  and  _407
REMARK  173  A    between atoms: _407  and  _408
REMARK  174  A    between atoms: _407  and  _410
REMARK  175  A    between atoms: _410  and  _411
REMARK  176  A    between atoms: _416  and  _417
REMARK  177  A    between atoms: _419  and  _421
REMARK  178  A    between atoms: _421  and  _422
REMARK  179  A    between atoms: _421  and  _424
REMARK  180  A    between atoms: _424  and  _425
REMARK  181  A    between atoms: _428  and  _430
REMARK  182  A    between atoms: _430  and  _431
REMARK  183  A    between atoms: _430  and  _433
REMARK  184  A    between atoms: _433  and  _434
REMARK  185  A    between atoms: _437  and  _439
REMARK  186  A    between atoms: _439  and  _440
REMARK  187  A    between atoms: _439  and  _442
REMARK  188  A    between atoms: _442  and  _443
REMARK  189  A    between atoms: _443  and  _444
REMARK  190  A    between atoms: _444  and  _445
REMARK  191  A    between atoms: _454  and  _456
REMARK  192  A    between atoms: _456  and  _457
REMARK  193  A    between atoms: _456  and  _459
REMARK  194  A    between atoms: _462  and  _464
REMARK  195  A    between atoms: _464  and  _465
REMARK  196  A    between atoms: _464  and  _467
REMARK  197  A    between atoms: _467  and  _468
REMARK  198  A    between atoms: _471  and  _473
REMARK  199  A    between atoms: _473  and  _474
REMARK  200  A    between atoms: _473  and  _476
REMARK  201  A    between atoms: _476  and  _477
REMARK  202  A    between atoms: _487  and  _489
REMARK  203  A    between atoms: _489  and  _490
REMARK  204  A    between atoms: _489  and  _492
REMARK  205  A    between atoms: _492  and  _493
REMARK  206  A    between atoms: _493  and  _494
REMARK  207  A    between atoms: _494  and  _495
REMARK  208  A    between atoms: _495  and  _496
REMARK  209  A    between atoms: _500  and  _502
REMARK  210  A    between atoms: _502  and  _503
REMARK  211  A    between atoms: _502  and  _505
REMARK  212  A    between atoms: _505  and  _506
REMARK  213  A    between atoms: _509  and  _510
REMARK  214  A    between atoms: _516  and  _517
REMARK  215  A    between atoms: _522  and  _524
REMARK  216  A    between atoms: _524  and  _525
REMARK  217  A    between atoms: _524  and  _527
REMARK  218  A    between atoms: _527  and  _528
REMARK  219  A    between atoms: _528  and  _529
REMARK  220  A    between atoms: _529  and  _530
REMARK  221  A    between atoms: _539  and  _541
REMARK  222  A    between atoms: _541  and  _542
REMARK  223  A    between atoms: _541  and  _544
REMARK  224  A    between atoms: _544  and  _545
REMARK  225  A    between atoms: _548  and  _550
REMARK  226  A    between atoms: _550  and  _551
REMARK  227  A    between atoms: _550  and  _553
REMARK  228  A    between atoms: _553  and  _554
REMARK  229  A    between atoms: _556  and  _558
REMARK  230  A    between atoms: _558  and  _559
REMARK  231  A    between atoms: _558  and  _561
REMARK  232  A    between atoms: _561  and  _562
REMARK  233  A    between atoms: _562  and  _563
REMARK  234  A    between atoms: _563  and  _564
REMARK  235  A    between atoms: _564  and  _565
REMARK  236  A    between atoms: _569  and  _571
REMARK  237  A    between atoms: _571  and  _572
REMARK  238  A    between atoms: _571  and  _574
REMARK  239  A    between atoms: _574  and  _575
REMARK  240  A    between atoms: _578  and  _580
REMARK  241  A    between atoms: _580  and  _581
REMARK  242  A    between atoms: _583  and  _585
REMARK  243  A    between atoms: _585  and  _586
REMARK  244  A    between atoms: _585  and  _588
REMARK  245  A    between atoms: _588  and  _589
REMARK  246  A    between atoms: _591  and  _593
REMARK  247  A    between atoms: _593  and  _594
REMARK  248  A    between atoms: _596  and  _598
REMARK  249  A    between atoms: _598  and  _599
REMARK  250  A    between atoms: _598  and  _601
REMARK  251  A    between atoms: _601  and  _602
REMARK  252  A    between atoms: _607  and  _609
REMARK  253  A    between atoms: _609  and  _610
REMARK  254  A    between atoms: _609  and  _612
REMARK  255  A    between atoms: _612  and  _613
REMARK  256  A    between atoms: _616  and  _618
REMARK  257  A    between atoms: _618  and  _619
REMARK  258  A    between atoms: _618  and  _621
REMARK  259  A    between atoms: _621  and  _622
REMARK  260  A    between atoms: _628  and  _630
REMARK  261  A    between atoms: _630  and  _631
REMARK  262  A    between atoms: _630  and  _633
REMARK  263  A    between atoms: _633  and  _634
REMARK  264  A    between atoms: _634  and  _635
REMARK  265  A    between atoms: _638  and  _640
REMARK  266  A    between atoms: _640  and  _641
REMARK  267  A    between atoms: _640  and  _643
REMARK  268  A    between atoms: _643  and  _644
REMARK  269  A    between atoms: _644  and  _645
REMARK  270  A    between atoms: _645  and  _646
REMARK  271  A    between atoms: _655  and  _657
REMARK  272  A    between atoms: _657  and  _658
REMARK  273  A    between atoms: _657  and  _660
REMARK  274  A    between atoms: _660  and  _661
REMARK  275  A    between atoms: _661  and  _662
REMARK  276  A    between atoms: _662  and  _663
REMARK  277  A    between atoms: _672  and  _674
REMARK  278  A    between atoms: _674  and  _675
REMARK  279  A    between atoms: _674  and  _677
REMARK  280  A    between atoms: _677  and  _678
REMARK  281  A    between atoms: _683  and  _684
REMARK  282  A    between atoms: _686  and  _688
REMARK  283  A    between atoms: _688  and  _689
REMARK  284  A    between atoms: _688  and  _691
REMARK  285  A    between atoms: _691  and  _692
REMARK  286  A    between atoms: _695  and  _697
REMARK  287  A    between atoms: _697  and  _698
REMARK  288  A    between atoms: _697  and  _700
REMARK  289  A    between atoms: _700  and  _701
REMARK  290  A    between atoms: _701  and  _702
REMARK  291  A    between atoms: _702  and  _703
REMARK  292  A    between atoms: _703  and  _704
REMARK  293  A    between atoms: _708  and  _710
REMARK  294  A    between atoms: _710  and  _711
REMARK  295  A    between atoms: _710  and  _713
REMARK  296  A    between atoms: _713  and  _714
REMARK  297  A    between atoms: _719  and  _721
REMARK  298  A    between atoms: _721  and  _722
REMARK  299  A    between atoms: _721  and  _724
REMARK  300  A    between atoms: _724  and  _725
REMARK  301  A    between atoms: _735  and  _737
REMARK  302  A    between atoms: _737  and  _738
REMARK  303  A    between atoms: _737  and  _740
REMARK  304  A    between atoms: _740  and  _741
REMARK  305  A    between atoms: _741  and  _742
REMARK  306  A    between atoms: _745  and  _747
REMARK  307  A    between atoms: _747  and  _748
REMARK  308  A    between atoms: _747  and  _750
REMARK  309  A    between atoms: _750  and  _751
REMARK  310  A    between atoms: _754  and  _756
REMARK  311  A    between atoms: _756  and  _757
REMARK  312  A    between atoms: _756  and  _759
REMARK  313  A    between atoms: _759  and  _760
REMARK  314  A    between atoms: _765  and  _767
REMARK  315  A    between atoms: _767  and  _768
REMARK  316  A    between atoms: _767  and  _770
REMARK  317  A    between atoms: _770  and  _771
REMARK  318  A    between atoms: _777  and  _779
REMARK  319  A    between atoms: _779  and  _780
REMARK  320  A    between atoms: _779  and  _782
REMARK  321  A    between atoms: _782  and  _783
REMARK  322  A    between atoms: _785  and  _787
REMARK  323  A    between atoms: _787  and  _788
REMARK  324  A    between atoms: _790  and  _792
REMARK  325  A    between atoms: _792  and  _793
REMARK  326  A    between atoms: _792  and  _795
REMARK  327  A    between atoms: _795  and  _796
REMARK  328  A    between atoms: _801  and  _802
REMARK  329  A    between atoms: _804  and  _806
REMARK  330  A    between atoms: _806  and  _807
REMARK  331  A    between atoms: _806  and  _809
REMARK  332  A    between atoms: _809  and  _810
REMARK  333  A    between atoms: _815  and  _816
REMARK  334  A    between atoms: _818  and  _820
REMARK  335  A    between atoms: _820  and  _821
REMARK  336  A    between atoms: _820  and  _823
REMARK  337  A    between atoms: _823  and  _824
REMARK  338  A    between atoms: _828  and  ZN_938
REMARK  339  A    between atoms: _829  and  _831
REMARK  340  A    between atoms: _831  and  _832
REMARK  341  A    between atoms: _831  and  _834
REMARK  342  A    between atoms: _834  and  _835
REMARK  343  A    between atoms: _835  and  _836
REMARK  344  A    between atoms: _839  and  _841
REMARK  345  A    between atoms: _841  and  _842
REMARK  346  A    between atoms: _841  and  _844
REMARK  347  A    between atoms: _844  and  _845
REMARK  348  A    between atoms: _845  and  _846
REMARK  349  A    between atoms: _846  and  _847
REMARK  350  A    between atoms: _856  and  _858
REMARK  351  A    between atoms: _858  and  _859
REMARK  352  A    between atoms: _858  and  _861
REMARK  353  A    between atoms: _861  and  _862
REMARK  354  A    between atoms: _867  and  _868
REMARK  355  A    between atoms: _870  and  _872
REMARK  356  A    between atoms: _872  and  _873
REMARK  357  A    between atoms: _872  and  _875
REMARK  358  A    between atoms: _875  and  _876
REMARK  359  A    between atoms: _878  and  _880
REMARK  360  A    between atoms: _880  and  _881
REMARK  361  A    between atoms: _880  and  _883
REMARK  362  A    between atoms: _883  and  _884
REMARK  363  A    between atoms: _889  and  _891
REMARK  364  A    between atoms: _891  and  _892
REMARK  365  A    between atoms: _891  and  _894
REMARK  366  A    between atoms: _894  and  _895
REMARK  367  A    between atoms: _900  and  _902
REMARK  368  A    between atoms: _902  and  _903
REMARK  369  A    between atoms: _902  and  _905
REMARK  370  A    between atoms: _905  and  _906
REMARK  371  A    between atoms: _906  and  _907
REMARK  372  A    between atoms: _907  and  _908
REMARK  373  A    between atoms: _908  and  _909
REMARK  374  A    between atoms: _913  and  _915
REMARK  375  A    between atoms: _915  and  _916
REMARK  376  A    between atoms: _915  and  _918
REMARK  377  A    between atoms: _918  and  _919
REMARK  378  A    between atoms: _924  and  _925
REMARK  379  A    between atoms: _927  and  _929
REMARK  380  A    between atoms: _929  and  _930
REMARK  381  A    between atoms: _933  and  _935
REMARK  382  A    between atoms: _935  and  _936
REMARK                            x       y       z     vdW  Elec       q    Type
REMARK                         _______ _______ _______ _____ _____    ______ ____
ROOT
ATOM      1  O   HOH     1      35.009  55.814  51.623  0.00  0.00    +0.000 OA
ENDROOT
TORSDOF 0
REMARK  Name = ../refined-set-2016/2xeg/2xeg_pocket.pdb
REMARK  382 active torsions:
REMARK  status: ('A' for Active; 'I' for Inactive)
REMARK    1  A    between atoms: _1  and  _3
REMARK    2  A    between atoms: _3  and  _4
REMARK    3  A    between atoms: _7  and  _9
REMARK    4  A    between atoms: _9  and  _10
REMARK    5  A    between atoms: _9  and  _12
REMARK    6  A    between atoms: _12  and  _13
REMARK    7  A    between atoms: _19  and  _21
REMARK    8  A    between atoms: _21  and  _22
REMARK    9  A    between atoms: _21  and  _24
REMARK   10  A    between atoms: _24  and  _25
REMARK   11  A    between atoms: _30  and  _31
REMARK   12  A    between atoms: _33  and  _35
REMARK   13  A    between atoms: _35  and  _36
REMARK   14  A    between atoms: _38  and  _40
REMARK   15  A    between atoms: _40  and  _41
REMARK   16  A    between atoms: _40  and  _43
REMARK   17  A    between atoms: _43  and  _44
REMARK   18  A    between atoms: _44  and  _45
REMARK   19  A    between atoms: _45  and  _46
REMARK   20  A    between atoms: _46  and  _47
REMARK   21  A    between atoms: _51  and  _53
REMARK   22  A    between atoms: _53  and  _54
REMARK   23  A    between atoms: _53  and  _56
REMARK   24  A    between atoms: _59  and  _61
REMARK   25  A    between atoms: _61  and  _62
REMARK   26  A    between atoms: _61  and  _64
REMARK   27  A    between atoms: _64  and  _65
REMARK   28  A    between atoms: _71  and  _73
REMARK   29  A    between atoms: _73  and  _74
REMARK   30  A    between atoms: _73  and  _76
REMARK   31  A    between atoms: _76  and  _77
REMARK   32  A    between atoms: _77  and  _78
REMARK   33  A    between atoms: _78  and  _79
REMARK   34  A    between atoms: _88  and  _90
REMARK   35  A    between atoms: _90  and  _91
REMARK   36  A    between atoms: _93  and  _95
REMARK   37  A    between atoms: _95  and  _96
REMARK   38  A    between atoms: _95  and  _98
REMARK   39  A    between atoms: _98  and  _99
REMARK   40  A    between atoms: _99  and  _100
REMARK   41  A    between atoms: _100  and  _101
REMARK   42  A    between atoms: _101  and  _102
REMARK   43  A    between atoms: _106  and  _108
REMARK   44  A    between atoms: _108  and  _109
REMARK   45  A    between atoms: _108  and  _111
REMARK   46  A    between atoms: _111  and  _112
REMARK   47  A    between atoms: _115  and  _117
REMARK   48  A    between atoms: _117  and  _118
REMARK   49  A    between atoms: _117  and  _120
REMARK   50  A    between atoms: _120  and  _121
REMARK   51  A    between atoms: _126  and  _127
REMARK   52  A    between atoms: _129  and  _131
REMARK   53  A    between atoms: _131  and  _132
REMARK   54  A    between atoms: _131  and  _134
REMARK   55  A    between atoms: _134  and  _135
REMARK   56  A    between atoms: _135  and  _136
REMARK   57  A    between atoms: _141  and  _143
REMARK   58  A    between atoms: _143  and  _144
REMARK   59  A    between atoms: _143  and  _146
REMARK   60  A    between atoms: _146  and  _147
REMARK   61  A    between atoms: _147  and  _148
REMARK   62  A    between atoms: _148  and  _149
REMARK   63  A    between atoms: _158  and  _160
REMARK   64  A    between atoms: _160  and  _161
REMARK   65  A    between atoms: _163  and  _165
REMARK   66  A    between atoms: _165  and  _166
REMARK   67  A    between atoms: _165  and  _168
REMARK   68  A    between atoms: _168  and  _169
REMARK   69  A    between atoms: _174  and  _176
REMARK   70  A    between atoms: _176  and  _177
REMARK   71  A    between atoms: _176  and  _179
REMARK   72  A    between atoms: _179  and  _180
REMARK   73  A    between atoms: _183  and  _185
REMARK   74  A    between atoms: _185  and  _186
REMARK   75  A    between atoms: _185  and  _188
REMARK   76  A    between atoms: _188  and  _189
REMARK   77  A    between atoms: _192  and  _194
REMARK   78  A    between atoms: _194  and  _195
REMARK   79  A    between atoms: _194  and  _197
REMARK   80  A    between atoms: _197  and  _198
REMARK   81  A    between atoms: _203  and  _205
REMARK   82  A    between atoms: _205  and  _206
REMARK   83  A    between atoms: _205  and  _208
REMARK   84  A    between atoms: _208  and  _209
REMARK   85  A    between atoms: _212  and  _214
REMARK   86  A    between atoms: _214  and  _215
REMARK   87  A    between atoms: _214  and  _217
REMARK   88  A    between atoms: _217  and  _218
REMARK   89  A    between atoms: _223  and  _225
REMARK   90  A    between atoms: _225  and  _226
REMARK   91  A    between atoms: _228  and  _230
REMARK   92  A    between atoms: _230  and  _231
REMARK   93  A    between atoms: _230  and  _233
REMARK   94  A    between atoms: _233  and  _234
REMARK   95  A    between atoms: _238  and  ZN_939
REMARK   96  A    between atoms: _239  and  _241
REMARK   97  A    between atoms: _241  and  _242
REMARK   98  A    between atoms: _241  and  _244
REMARK   99  A    between atoms: _244  and  _245
REMARK  100  A    between atoms: _248  and  _250
REMARK  101  A    between atoms: _250  and  _251
REMARK  102  A    between atoms: _250  and  _253
REMARK  103  A    between atoms: _253  and  _254
REMARK  104  A    between atoms: _264  and  _266
REMARK  105  A    between atoms: _266  and  _267
REMARK  106  A    between atoms: _266  and  _269
REMARK  107  A    between atoms: _269  and  _270
REMARK  108  A    between atoms: _273  and  _275
REMARK  109  A    between atoms: _275  and  _276
REMARK  110  A    between atoms: _275  and  _278
REMARK  111  A    between atoms: _278  and  _279
REMARK  112  A    between atoms: _279  and  _280
REMARK  113  A    between atoms: _279  and  _281
REMARK  114  A    between atoms: _280  and  ZN_939
REMARK  115  A    between atoms: _281  and  ZN_938
REMARK  116  A    between atoms: _283  and  _284
REMARK  117  A    between atoms: _289  and  _291
REMARK  118  A    between atoms: _291  and  _292
REMARK  119  A    between atoms: _295  and  _297
REMARK  120  A    between atoms: _297  and  _298
REMARK  121  A    between atoms: _297  and  _300
REMARK  122  A    between atoms: _300  and  _301
REMARK  123  A    between atoms: _301  and  _302
REMARK  124  A    between atoms: _305  and  _307
REMARK  125  A    between atoms: _307  and  _308
REMARK  126  A    between atoms: _307  and  _310
REMARK  127  A    between atoms: _310  and  _311
REMARK  128  A    between atoms: _311  and  _312
REMARK  129  A    between atoms: _312  and  _314
REMARK  130  A    between atoms: _314  and  ZN_938
REMARK  131  A    between atoms: _315  and  _317
REMARK  132  A    between atoms: _317  and  _318
REMARK  133  A    between atoms: _317  and  _320
REMARK  134  A    between atoms: _320  and  _321
REMARK  135  A    between atoms: _327  and  _329
REMARK  136  A    between atoms: _329  and  _330
REMARK  137  A    between atoms: _332  and  _334
REMARK  138  A    between atoms: _334  and  _335
REMARK  139  A    between atoms: _334  and  _337
REMARK  140  A    between atoms: _337  and  _338
REMARK  141  A    between atoms: _341  and  _343
REMARK  142  A    between atoms: _343  and  _344
REMARK  143  A    between atoms: _343  and  _346
REMARK  144  A    between atoms: _346  and  _347
REMARK  145  A    between atoms: _350  and  _352
REMARK  146  A    between atoms: _352  and  _353
REMARK  147  A    between atoms: _352  and  _355
REMARK  148  A    between atoms: _355  and  _356
REMARK  149  A    between atoms: _361  and  _363
REMARK  150  A    between atoms: _363  and  _364
REMARK  151  A    between atoms: _363  and  _366
REMARK  152  A    between atoms: _366  and  _367
REMARK  153  A    between atoms: _367  and  _369
REMARK  154  A    between atoms: _369  and  ZN_939
REMARK  155  A    between atoms: _370  and  _372
REMARK  156  A    between atoms: _372  and  _373
REMARK  157  A    between atoms: _372  and  _375
REMARK  158  A    between atoms: _375  and  _376
REMARK  159  A    between atoms: _378  and  _380
REMARK  160  A    between atoms: _380  and  _381
REMARK  161  A    between atoms: _380  and  _383
REMARK  162  A    between atoms: _383  and  _384
REMARK  163  A    between atoms: _386  and  _388
REMARK  164  A    between atoms: _388  and  _389
REMARK  165  A    between atoms: _388  and  _391
REMARK  166  A    between atoms: _391  and  _392
REMARK  167  A    between atoms: _395  and  _397
REMARK  168  A    between atoms: _397  and  _398
REMARK  169  A    between atoms: _397  and  _400
REMARK  170  A    between atoms: _400  and  _401
REMARK  171  A    between atoms: _401  and  _402
REMARK  172  A    between atoms: _405  and  _407
REMARK  173  A    between atoms: _407  and  _408
REMARK  174  A    between atoms: _407  and  _410
REMARK  175  A    between atoms: _410  and  _411
REMARK  176  A    between atoms: _416  and  _417
REMARK  177  A    between atoms: _419  and  _421
REMARK  178  A    between atoms: _421  and  _422
REMARK  179  A    between atoms: _421  and  _424
REMARK  180  A    between atoms: _424  and  _425
REMARK  181  A    between atoms: _428  and  _430
REMARK  182  A    between atoms: _430  and  _431
REMARK  183  A    between atoms: _430  and  _433
REMARK  184  A    between atoms: _433  and  _434
REMARK  185  A    between atoms: _437  and  _439
REMARK  186  A    between atoms: _439  and  _440
REMARK  187  A    between atoms: _439  and  _442
REMARK  188  A    between atoms: _442  and  _443
REMARK  189  A    between atoms: _443  and  _444
REMARK  190  A    between atoms: _444  and  _445
REMARK  191  A    between atoms: _454  and  _456
REMARK  192  A    between atoms: _456  and  _457
REMARK  193  A    between atoms: _456  and  _459
REMARK  194  A    between atoms: _462  and  _464
REMARK  195  A    between atoms: _464  and  _465
REMARK  196  A    between atoms: _464  and  _467
REMARK  197  A    between atoms: _467  and  _468
REMARK  198  A    between atoms: _471  and  _473
REMARK  199  A    between atoms: _473  and  _474
REMARK  200  A    between atoms: _473  and  _476
REMARK  201  A    between atoms: _476  and  _477
REMARK  202  A    between atoms: _487  and  _489
REMARK  203  A    between atoms: _489  and  _490
REMARK  204  A    between atoms: _489  and  _492
REMARK  205  A    between atoms: _492  and  _493
REMARK  206  A    between atoms: _493  and  _494
REMARK  207  A    between atoms: _494  and  _495
REMARK  208  A    between atoms: _495  and  _496
REMARK  209  A    between atoms: _500  and  _502
REMARK  210  A    between atoms: _502  and  _503
REMARK  211  A    between atoms: _502  and  _505
REMARK  212  A    between atoms: _505  and  _506
REMARK  213  A    between atoms: _509  and  _510
REMARK  214  A    between atoms: _516  and  _517
REMARK  215  A    between atoms: _522  and  _524
REMARK  216  A    between atoms: _524  and  _525
REMARK  217  A    between atoms: _524  and  _527
REMARK  218  A    between atoms: _527  and  _528
REMARK  219  A    between atoms: _528  and  _529
REMARK  220  A    between atoms: _529  and  _530
REMARK  221  A    between atoms: _539  and  _541
REMARK  222  A    between atoms: _541  and  _542
REMARK  223  A    between atoms: _541  and  _544
REMARK  224  A    between atoms: _544  and  _545
REMARK  225  A    between atoms: _548  and  _550
REMARK  226  A    between atoms: _550  and  _551
REMARK  227  A    between atoms: _550  and  _553
REMARK  228  A    between atoms: _553  and  _554
REMARK  229  A    between atoms: _556  and  _558
REMARK  230  A    between atoms: _558  and  _559
REMARK  231  A    between atoms: _558  and  _561
REMARK  232  A    between atoms: _561  and  _562
REMARK  233  A    between atoms: _562  and  _563
REMARK  234  A    between atoms: _563  and  _564
REMARK  235  A    between atoms: _564  and  _565
REMARK  236  A    between atoms: _569  and  _571
REMARK  237  A    between atoms: _571  and  _572
REMARK  238  A    between atoms: _571  and  _574
REMARK  239  A    between atoms: _574  and  _575
REMARK  240  A    between atoms: _578  and  _580
REMARK  241  A    between atoms: _580  and  _581
REMARK  242  A    between atoms: _583  and  _585
REMARK  243  A    between atoms: _585  and  _586
REMARK  244  A    between atoms: _585  and  _588
REMARK  245  A    between atoms: _588  and  _589
REMARK  246  A    between atoms: _591  and  _593
REMARK  247  A    between atoms: _593  and  _594
REMARK  248  A    between atoms: _596  and  _598
REMARK  249  A    between atoms: _598  and  _599
REMARK  250  A    between atoms: _598  and  _601
REMARK  251  A    between atoms: _601  and  _602
REMARK  252  A    between atoms: _607  and  _609
REMARK  253  A    between atoms: _609  and  _610
REMARK  254  A    between atoms: _609  and  _612
REMARK  255  A    between atoms: _612  and  _613
REMARK  256  A    between atoms: _616  and  _618
REMARK  257  A    between atoms: _618  and  _619
REMARK  258  A    between atoms: _618  and  _621
REMARK  259  A    between atoms: _621  and  _622
REMARK  260  A    between atoms: _628  and  _630
REMARK  261  A    between atoms: _630  and  _631
REMARK  262  A    between atoms: _630  and  _633
REMARK  263  A    between atoms: _633  and  _634
REMARK  264  A    between atoms: _634  and  _635
REMARK  265  A    between atoms: _638  and  _640
REMARK  266  A    between atoms: _640  and  _641
REMARK  267  A    between atoms: _640  and  _643
REMARK  268  A    between atoms: _643  and  _644
REMARK  269  A    between atoms: _644  and  _645
REMARK  270  A    between atoms: _645  and  _646
REMARK  271  A    between atoms: _655  and  _657
REMARK  272  A    between atoms: _657  and  _658
REMARK  273  A    between atoms: _657  and  _660
REMARK  274  A    between atoms: _660  and  _661
REMARK  275  A    between atoms: _661  and  _662
REMARK  276  A    between atoms: _662  and  _663
REMARK  277  A    between atoms: _672  and  _674
REMARK  278  A    between atoms: _674  and  _675
REMARK  279  A    between atoms: _674  and  _677
REMARK  280  A    between atoms: _677  and  _678
REMARK  281  A    between atoms: _683  and  _684
REMARK  282  A    between atoms: _686  and  _688
REMARK  283  A    between atoms: _688  and  _689
REMARK  284  A    between atoms: _688  and  _691
REMARK  285  A    between atoms: _691  and  _692
REMARK  286  A    between atoms: _695  and  _697
REMARK  287  A    between atoms: _697  and  _698
REMARK  288  A    between atoms: _697  and  _700
REMARK  289  A    between atoms: _700  and  _701
REMARK  290  A    between atoms: _701  and  _702
REMARK  291  A    between atoms: _702  and  _703
REMARK  292  A    between atoms: _703  and  _704
REMARK  293  A    between atoms: _708  and  _710
REMARK  294  A    between atoms: _710  and  _711
REMARK  295  A    between atoms: _710  and  _713
REMARK  296  A    between atoms: _713  and  _714
REMARK  297  A    between atoms: _719  and  _721
REMARK  298  A    between atoms: _721  and  _722
REMARK  299  A    between atoms: _721  and  _724
REMARK  300  A    between atoms: _724  and  _725
REMARK  301  A    between atoms: _735  and  _737
REMARK  302  A    between atoms: _737  and  _738
REMARK  303  A    between atoms: _737  and  _740
REMARK  304  A    between atoms: _740  and  _741
REMARK  305  A    between atoms: _741  and  _742
REMARK  306  A    between atoms: _745  and  _747
REMARK  307  A    between atoms: _747  and  _748
REMARK  308  A    between atoms: _747  and  _750
REMARK  309  A    between atoms: _750  and  _751
REMARK  310  A    between atoms: _754  and  _756
REMARK  311  A    between atoms: _756  and  _757
REMARK  312  A    between atoms: _756  and  _759
REMARK  313  A    between atoms: _759  and  _760
REMARK  314  A    between atoms: _765  and  _767
REMARK  315  A    between atoms: _767  and  _768
REMARK  316  A    between atoms: _767  and  _770
REMARK  317  A    between atoms: _770  and  _771
REMARK  318  A    between atoms: _777  and  _779
REMARK  319  A    between atoms: _779  and  _780
REMARK  320  A    between atoms: _779  and  _782
REMARK  321  A    between atoms: _782  and  _783
REMARK  322  A    between atoms: _785  and  _787
REMARK  323  A    between atoms: _787  and  _788
REMARK  324  A    between atoms: _790  and  _792
REMARK  325  A    between atoms: _792  and  _793
REMARK  326  A    between atoms: _792  and  _795
REMARK  327  A    between atoms: _795  and  _796
REMARK  328  A    between atoms: _801  and  _802
REMARK  329  A    between atoms: _804  and  _806
REMARK  330  A    between atoms: _806  and  _807
REMARK  331  A    between atoms: _806  and  _809
REMARK  332  A    between atoms: _809  and  _810
REMARK  333  A    between atoms: _815  and  _816
REMARK  334  A    between atoms: _818  and  _820
REMARK  335  A    between atoms: _820  and  _821
REMARK  336  A    between atoms: _820  and  _823
REMARK  337  A    between atoms: _823  and  _824
REMARK  338  A    between atoms: _828  and  ZN_938
REMARK  339  A    between atoms: _829  and  _831
REMARK  340  A    between atoms: _831  and  _832
REMARK  341  A    between atoms: _831  and  _834
REMARK  342  A    between atoms: _834  and  _835
REMARK  343  A    between atoms: _835  and  _836
REMARK  344  A    between atoms: _839  and  _841
REMARK  345  A    between atoms: _841  and  _842
REMARK  346  A    between atoms: _841  and  _844
REMARK  347  A    between atoms: _844  and  _845
REMARK  348  A    between atoms: _845  and  _846
REMARK  349  A    between atoms: _846  and  _847
REMARK  350  A    between atoms: _856  and  _858
REMARK  351  A    between atoms: _858  and  _859
REMARK  352  A    between atoms: _858  and  _861
REMARK  353  A    between atoms: _861  and  _862
REMARK  354  A    between atoms: _867  and  _868
REMARK  355  A    between atoms: _870  and  _872
REMARK  356  A    between atoms: _872  and  _873
REMARK  357  A    between atoms: _872  and  _875
REMARK  358  A    between atoms: _875  and  _876
REMARK  359  A    between atoms: _878  and  _880
REMARK  360  A    between atoms: _880  and  _881
REMARK  361  A    between atoms: _880  and  _883
REMARK  362  A    between atoms: _883  and  _884
REMARK  363  A    between atoms: _889  and  _891
REMARK  364  A    between atoms: _891  and  _892
REMARK  365  A    between atoms: _891  and  _894
REMARK  366  A    between atoms: _894  and  _895
REMARK  367  A    between atoms: _900  and  _902
REMARK  368  A    between atoms: _902  and  _903
REMARK  369  A    between atoms: _902  and  _905
REMARK  370  A    between atoms: _905  and  _906
REMARK  371  A    between atoms: _906  and  _907
REMARK  372  A    between atoms: _907  and  _908
REMARK  373  A    between atoms: _908  and  _909
REMARK  374  A    between atoms: _913  and  _915
REMARK  375  A    between atoms: _915  and  _916
REMARK  376  A    between atoms: _915  and  _918
REMARK  377  A    between atoms: _918  and  _919
REMARK  378  A    between atoms: _924  and  _925
REMARK  379  A    between atoms: _927  and  _929
REMARK  380  A    between atoms: _929  and  _930
REMARK  381  A    between atoms: _933  and  _935
REMARK  382  A    between atoms: _935  and  _936
REMARK                            x       y       z     vdW  Elec       q    Type
REMARK                         _______ _______ _______ _____ _____    ______ ____
ROOT
ATOM      1  O   HOH     1      28.645  53.752  53.299  0.00  0.00    +0.000 OA
ENDROOT
TORSDOF 0
REMARK  Name = ../refined-set-2016/2xeg/2xeg_pocket.pdb
REMARK  382 active torsions:
REMARK  status: ('A' for Active; 'I' for Inactive)
REMARK    1  A    between atoms: _1  and  _3
REMARK    2  A    between atoms: _3  and  _4
REMARK    3  A    between atoms: _7  and  _9
REMARK    4  A    between atoms: _9  and  _10
REMARK    5  A    between atoms: _9  and  _12
REMARK    6  A    between atoms: _12  and  _13
REMARK    7  A    between atoms: _19  and  _21
REMARK    8  A    between atoms: _21  and  _22
REMARK    9  A    between atoms: _21  and  _24
REMARK   10  A    between atoms: _24  and  _25
REMARK   11  A    between atoms: _30  and  _31
REMARK   12  A    between atoms: _33  and  _35
REMARK   13  A    between atoms: _35  and  _36
REMARK   14  A    between atoms: _38  and  _40
REMARK   15  A    between atoms: _40  and  _41
REMARK   16  A    between atoms: _40  and  _43
REMARK   17  A    between atoms: _43  and  _44
REMARK   18  A    between atoms: _44  and  _45
REMARK   19  A    between atoms: _45  and  _46
REMARK   20  A    between atoms: _46  and  _47
REMARK   21  A    between atoms: _51  and  _53
REMARK   22  A    between atoms: _53  and  _54
REMARK   23  A    between atoms: _53  and  _56
REMARK   24  A    between atoms: _59  and  _61
REMARK   25  A    between atoms: _61  and  _62
REMARK   26  A    between atoms: _61  and  _64
REMARK   27  A    between atoms: _64  and  _65
REMARK   28  A    between atoms: _71  and  _73
REMARK   29  A    between atoms: _73  and  _74
REMARK   30  A    between atoms: _73  and  _76
REMARK   31  A    between atoms: _76  and  _77
REMARK   32  A    between atoms: _77  and  _78
REMARK   33  A    between atoms: _78  and  _79
REMARK   34  A    between atoms: _88  and  _90
REMARK   35  A    between atoms: _90  and  _91
REMARK   36  A    between atoms: _93  and  _95
REMARK   37  A    between atoms: _95  and  _96
REMARK   38  A    between atoms: _95  and  _98
REMARK   39  A    between atoms: _98  and  _99
REMARK   40  A    between atoms: _99  and  _100
REMARK   41  A    between atoms: _100  and  _101
REMARK   42  A    between atoms: _101  and  _102
REMARK   43  A    between atoms: _106  and  _108
REMARK   44  A    between atoms: _108  and  _109
REMARK   45  A    between atoms: _108  and  _111
REMARK   46  A    between atoms: _111  and  _112
REMARK   47  A    between atoms: _115  and  _117
REMARK   48  A    between atoms: _117  and  _118
REMARK   49  A    between atoms: _117  and  _120
REMARK   50  A    between atoms: _120  and  _121
REMARK   51  A    between atoms: _126  and  _127
REMARK   52  A    between atoms: _129  and  _131
REMARK   53  A    between atoms: _131  and  _132
REMARK   54  A    between atoms: _131  and  _134
REMARK   55  A    between atoms: _134  and  _135
REMARK   56  A    between atoms: _135  and  _136
REMARK   57  A    between atoms: _141  and  _143
REMARK   58  A    between atoms: _143  and  _144
REMARK   59  A    between atoms: _143  and  _146
REMARK   60  A    between atoms: _146  and  _147
REMARK   61  A    between atoms: _147  and  _148
REMARK   62  A    between atoms: _148  and  _149
REMARK   63  A    between atoms: _158  and  _160
REMARK   64  A    between atoms: _160  and  _161
REMARK   65  A    between atoms: _163  and  _165
REMARK   66  A    between atoms: _165  and  _166
REMARK   67  A    between atoms: _165  and  _168
REMARK   68  A    between atoms: _168  and  _169
REMARK   69  A    between atoms: _174  and  _176
REMARK   70  A    between atoms: _176  and  _177
REMARK   71  A    between atoms: _176  and  _179
REMARK   72  A    between atoms: _179  and  _180
REMARK   73  A    between atoms: _183  and  _185
REMARK   74  A    between atoms: _185  and  _186
REMARK   75  A    between atoms: _185  and  _188
REMARK   76  A    between atoms: _188  and  _189
REMARK   77  A    between atoms: _192  and  _194
REMARK   78  A    between atoms: _194  and  _195
REMARK   79  A    between atoms: _194  and  _197
REMARK   80  A    between atoms: _197  and  _198
REMARK   81  A    between atoms: _203  and  _205
REMARK   82  A    between atoms: _205  and  _206
REMARK   83  A    between atoms: _205  and  _208
REMARK   84  A    between atoms: _208  and  _209
REMARK   85  A    between atoms: _212  and  _214
REMARK   86  A    between atoms: _214  and  _215
REMARK   87  A    between atoms: _214  and  _217
REMARK   88  A    between atoms: _217  and  _218
REMARK   89  A    between atoms: _223  and  _225
REMARK   90  A    between atoms: _225  and  _226
REMARK   91  A    between atoms: _228  and  _230
REMARK   92  A    between atoms: _230  and  _231
REMARK   93  A    between atoms: _230  and  _233
REMARK   94  A    between atoms: _233  and  _234
REMARK   95  A    between atoms: _238  and  ZN_939
REMARK   96  A    between atoms: _239  and  _241
REMARK   97  A    between atoms: _241  and  _242
REMARK   98  A    between atoms: _241  and  _244
REMARK   99  A    between atoms: _244  and  _245
REMARK  100  A    between atoms: _248  and  _250
REMARK  101  A    between atoms: _250  and  _251
REMARK  102  A    between atoms: _250  and  _253
REMARK  103  A    between atoms: _253  and  _254
REMARK  104  A    between atoms: _264  and  _266
REMARK  105  A    between atoms: _266  and  _267
REMARK  106  A    between atoms: _266  and  _269
REMARK  107  A    between atoms: _269  and  _270
REMARK  108  A    between atoms: _273  and  _275
REMARK  109  A    between atoms: _275  and  _276
REMARK  110  A    between atoms: _275  and  _278
REMARK  111  A    between atoms: _278  and  _279
REMARK  112  A    between atoms: _279  and  _280
REMARK  113  A    between atoms: _279  and  _281
REMARK  114  A    between atoms: _280  and  ZN_939
REMARK  115  A    between atoms: _281  and  ZN_938
REMARK  116  A    between atoms: _283  and  _284
REMARK  117  A    between atoms: _289  and  _291
REMARK  118  A    between atoms: _291  and  _292
REMARK  119  A    between atoms: _295  and  _297
REMARK  120  A    between atoms: _297  and  _298
REMARK  121  A    between atoms: _297  and  _300
REMARK  122  A    between atoms: _300  and  _301
REMARK  123  A    between atoms: _301  and  _302
REMARK  124  A    between atoms: _305  and  _307
REMARK  125  A    between atoms: _307  and  _308
REMARK  126  A    between atoms: _307  and  _310
REMARK  127  A    between atoms: _310  and  _311
REMARK  128  A    between atoms: _311  and  _312
REMARK  129  A    between atoms: _312  and  _314
REMARK  130  A    between atoms: _314  and  ZN_938
REMARK  131  A    between atoms: _315  and  _317
REMARK  132  A    between atoms: _317  and  _318
REMARK  133  A    between atoms: _317  and  _320
REMARK  134  A    between atoms: _320  and  _321
REMARK  135  A    between atoms: _327  and  _329
REMARK  136  A    between atoms: _329  and  _330
REMARK  137  A    between atoms: _332  and  _334
REMARK  138  A    between atoms: _334  and  _335
REMARK  139  A    between atoms: _334  and  _337
REMARK  140  A    between atoms: _337  and  _338
REMARK  141  A    between atoms: _341  and  _343
REMARK  142  A    between atoms: _343  and  _344
REMARK  143  A    between atoms: _343  and  _346
REMARK  144  A    between atoms: _346  and  _347
REMARK  145  A    between atoms: _350  and  _352
REMARK  146  A    between atoms: _352  and  _353
REMARK  147  A    between atoms: _352  and  _355
REMARK  148  A    between atoms: _355  and  _356
REMARK  149  A    between atoms: _361  and  _363
REMARK  150  A    between atoms: _363  and  _364
REMARK  151  A    between atoms: _363  and  _366
REMARK  152  A    between atoms: _366  and  _367
REMARK  153  A    between atoms: _367  and  _369
REMARK  154  A    between atoms: _369  and  ZN_939
REMARK  155  A    between atoms: _370  and  _372
REMARK  156  A    between atoms: _372  and  _373
REMARK  157  A    between atoms: _372  and  _375
REMARK  158  A    between atoms: _375  and  _376
REMARK  159  A    between atoms: _378  and  _380
REMARK  160  A    between atoms: _380  and  _381
REMARK  161  A    between atoms: _380  and  _383
REMARK  162  A    between atoms: _383  and  _384
REMARK  163  A    between atoms: _386  and  _388
REMARK  164  A    between atoms: _388  and  _389
REMARK  165  A    between atoms: _388  and  _391
REMARK  166  A    between atoms: _391  and  _392
REMARK  167  A    between atoms: _395  and  _397
REMARK  168  A    between atoms: _397  and  _398
REMARK  169  A    between atoms: _397  and  _400
REMARK  170  A    between atoms: _400  and  _401
REMARK  171  A    between atoms: _401  and  _402
REMARK  172  A    between atoms: _405  and  _407
REMARK  173  A    between atoms: _407  and  _408
REMARK  174  A    between atoms: _407  and  _410
REMARK  175  A    between atoms: _410  and  _411
REMARK  176  A    between atoms: _416  and  _417
REMARK  177  A    between atoms: _419  and  _421
REMARK  178  A    between atoms: _421  and  _422
REMARK  179  A    between atoms: _421  and  _424
REMARK  180  A    between atoms: _424  and  _425
REMARK  181  A    between atoms: _428  and  _430
REMARK  182  A    between atoms: _430  and  _431
REMARK  183  A    between atoms: _430  and  _433
REMARK  184  A    between atoms: _433  and  _434
REMARK  185  A    between atoms: _437  and  _439
REMARK  186  A    between atoms: _439  and  _440
REMARK  187  A    between atoms: _439  and  _442
REMARK  188  A    between atoms: _442  and  _443
REMARK  189  A    between atoms: _443  and  _444
REMARK  190  A    between atoms: _444  and  _445
REMARK  191  A    between atoms: _454  and  _456
REMARK  192  A    between atoms: _456  and  _457
REMARK  193  A    between atoms: _456  and  _459
REMARK  194  A    between atoms: _462  and  _464
REMARK  195  A    between atoms: _464  and  _465
REMARK  196  A    between atoms: _464  and  _467
REMARK  197  A    between atoms: _467  and  _468
REMARK  198  A    between atoms: _471  and  _473
REMARK  199  A    between atoms: _473  and  _474
REMARK  200  A    between atoms: _473  and  _476
REMARK  201  A    between atoms: _476  and  _477
REMARK  202  A    between atoms: _487  and  _489
REMARK  203  A    between atoms: _489  and  _490
REMARK  204  A    between atoms: _489  and  _492
REMARK  205  A    between atoms: _492  and  _493
REMARK  206  A    between atoms: _493  and  _494
REMARK  207  A    between atoms: _494  and  _495
REMARK  208  A    between atoms: _495  and  _496
REMARK  209  A    between atoms: _500  and  _502
REMARK  210  A    between atoms: _502  and  _503
REMARK  211  A    between atoms: _502  and  _505
REMARK  212  A    between atoms: _505  and  _506
REMARK  213  A    between atoms: _509  and  _510
REMARK  214  A    between atoms: _516  and  _517
REMARK  215  A    between atoms: _522  and  _524
REMARK  216  A    between atoms: _524  and  _525
REMARK  217  A    between atoms: _524  and  _527
REMARK  218  A    between atoms: _527  and  _528
REMARK  219  A    between atoms: _528  and  _529
REMARK  220  A    between atoms: _529  and  _530
REMARK  221  A    between atoms: _539  and  _541
REMARK  222  A    between atoms: _541  and  _542
REMARK  223  A    between atoms: _541  and  _544
REMARK  224  A    between atoms: _544  and  _545
REMARK  225  A    between atoms: _548  and  _550
REMARK  226  A    between atoms: _550  and  _551
REMARK  227  A    between atoms: _550  and  _553
REMARK  228  A    between atoms: _553  and  _554
REMARK  229  A    between atoms: _556  and  _558
REMARK  230  A    between atoms: _558  and  _559
REMARK  231  A    between atoms: _558  and  _561
REMARK  232  A    between atoms: _561  and  _562
REMARK  233  A    between atoms: _562  and  _563
REMARK  234  A    between atoms: _563  and  _564
REMARK  235  A    between atoms: _564  and  _565
REMARK  236  A    between atoms: _569  and  _571
REMARK  237  A    between atoms: _571  and  _572
REMARK  238  A    between atoms: _571  and  _574
REMARK  239  A    between atoms: _574  and  _575
REMARK  240  A    between atoms: _578  and  _580
REMARK  241  A    between atoms: _580  and  _581
REMARK  242  A    between atoms: _583  and  _585
REMARK  243  A    between atoms: _585  and  _586
REMARK  244  A    between atoms: _585  and  _588
REMARK  245  A    between atoms: _588  and  _589
REMARK  246  A    between atoms: _591  and  _593
REMARK  247  A    between atoms: _593  and  _594
REMARK  248  A    between atoms: _596  and  _598
REMARK  249  A    between atoms: _598  and  _599
REMARK  250  A    between atoms: _598  and  _601
REMARK  251  A    between atoms: _601  and  _602
REMARK  252  A    between atoms: _607  and  _609
REMARK  253  A    between atoms: _609  and  _610
REMARK  254  A    between atoms: _609  and  _612
REMARK  255  A    between atoms: _612  and  _613
REMARK  256  A    between atoms: _616  and  _618
REMARK  257  A    between atoms: _618  and  _619
REMARK  258  A    between atoms: _618  and  _621
REMARK  259  A    between atoms: _621  and  _622
REMARK  260  A    between atoms: _628  and  _630
REMARK  261  A    between atoms: _630  and  _631
REMARK  262  A    between atoms: _630  and  _633
REMARK  263  A    between atoms: _633  and  _634
REMARK  264  A    between atoms: _634  and  _635
REMARK  265  A    between atoms: _638  and  _640
REMARK  266  A    between atoms: _640  and  _641
REMARK  267  A    between atoms: _640  and  _643
REMARK  268  A    between atoms: _643  and  _644
REMARK  269  A    between atoms: _644  and  _645
REMARK  270  A    between atoms: _645  and  _646
REMARK  271  A    between atoms: _655  and  _657
REMARK  272  A    between atoms: _657  and  _658
REMARK  273  A    between atoms: _657  and  _660
REMARK  274  A    between atoms: _660  and  _661
REMARK  275  A    between atoms: _661  and  _662
REMARK  276  A    between atoms: _662  and  _663
REMARK  277  A    between atoms: _672  and  _674
REMARK  278  A    between atoms: _674  and  _675
REMARK  279  A    between atoms: _674  and  _677
REMARK  280  A    between atoms: _677  and  _678
REMARK  281  A    between atoms: _683  and  _684
REMARK  282  A    between atoms: _686  and  _688
REMARK  283  A    between atoms: _688  and  _689
REMARK  284  A    between atoms: _688  and  _691
REMARK  285  A    between atoms: _691  and  _692
REMARK  286  A    between atoms: _695  and  _697
REMARK  287  A    between atoms: _697  and  _698
REMARK  288  A    between atoms: _697  and  _700
REMARK  289  A    between atoms: _700  and  _701
REMARK  290  A    between atoms: _701  and  _702
REMARK  291  A    between atoms: _702  and  _703
REMARK  292  A    between atoms: _703  and  _704
REMARK  293  A    between atoms: _708  and  _710
REMARK  294  A    between atoms: _710  and  _711
REMARK  295  A    between atoms: _710  and  _713
REMARK  296  A    between atoms: _713  and  _714
REMARK  297  A    between atoms: _719  and  _721
REMARK  298  A    between atoms: _721  and  _722
REMARK  299  A    between atoms: _721  and  _724
REMARK  300  A    between atoms: _724  and  _725
REMARK  301  A    between atoms: _735  and  _737
REMARK  302  A    between atoms: _737  and  _738
REMARK  303  A    between atoms: _737  and  _740
REMARK  304  A    between atoms: _740  and  _741
REMARK  305  A    between atoms: _741  and  _742
REMARK  306  A    between atoms: _745  and  _747
REMARK  307  A    between atoms: _747  and  _748
REMARK  308  A    between atoms: _747  and  _750
REMARK  309  A    between atoms: _750  and  _751
REMARK  310  A    between atoms: _754  and  _756
REMARK  311  A    between atoms: _756  and  _757
REMARK  312  A    between atoms: _756  and  _759
REMARK  313  A    between atoms: _759  and  _760
REMARK  314  A    between atoms: _765  and  _767
REMARK  315  A    between atoms: _767  and  _768
REMARK  316  A    between atoms: _767  and  _770
REMARK  317  A    between atoms: _770  and  _771
REMARK  318  A    between atoms: _777  and  _779
REMARK  319  A    between atoms: _779  and  _780
REMARK  320  A    between atoms: _779  and  _782
REMARK  321  A    between atoms: _782  and  _783
REMARK  322  A    between atoms: _785  and  _787
REMARK  323  A    between atoms: _787  and  _788
REMARK  324  A    between atoms: _790  and  _792
REMARK  325  A    between atoms: _792  and  _793
REMARK  326  A    between atoms: _792  and  _795
REMARK  327  A    between atoms: _795  and  _796
REMARK  328  A    between atoms: _801  and  _802
REMARK  329  A    between atoms: _804  and  _806
REMARK  330  A    between atoms: _806  and  _807
REMARK  331  A    between atoms: _806  and  _809
REMARK  332  A    between atoms: _809  and  _810
REMARK  333  A    between atoms: _815  and  _816
REMARK  334  A    between atoms: _818  and  _820
REMARK  335  A    between atoms: _820  and  _821
REMARK  336  A    between atoms: _820  and  _823
REMARK  337  A    between atoms: _823  and  _824
REMARK  338  A    between atoms: _828  and  ZN_938
REMARK  339  A    between atoms: _829  and  _831
REMARK  340  A    between atoms: _831  and  _832
REMARK  341  A    between atoms: _831  and  _834
REMARK  342  A    between atoms: _834  and  _835
REMARK  343  A    between atoms: _835  and  _836
REMARK  344  A    between atoms: _839  and  _841
REMARK  345  A    between atoms: _841  and  _842
REMARK  346  A    between atoms: _841  and  _844
REMARK  347  A    between atoms: _844  and  _845
REMARK  348  A    between atoms: _845  and  _846
REMARK  349  A    between atoms: _846  and  _847
REMARK  350  A    between atoms: _856  and  _858
REMARK  351  A    between atoms: _858  and  _859
REMARK  352  A    between atoms: _858  and  _861
REMARK  353  A    between atoms: _861  and  _862
REMARK  354  A    between atoms: _867  and  _868
REMARK  355  A    between atoms: _870  and  _872
REMARK  356  A    between atoms: _872  and  _873
REMARK  357  A    between atoms: _872  and  _875
REMARK  358  A    between atoms: _875  and  _876
REMARK  359  A    between atoms: _878  and  _880
REMARK  360  A    between atoms: _880  and  _881
REMARK  361  A    between atoms: _880  and  _883
REMARK  362  A    between atoms: _883  and  _884
REMARK  363  A    between atoms: _889  and  _891
REMARK  364  A    between atoms: _891  and  _892
REMARK  365  A    between atoms: _891  and  _894
REMARK  366  A    between atoms: _894  and  _895
REMARK  367  A    between atoms: _900  and  _902
REMARK  368  A    between atoms: _902  and  _903
REMARK  369  A    between atoms: _902  and  _905
REMARK  370  A    between atoms: _905  and  _906
REMARK  371  A    between atoms: _906  and  _907
REMARK  372  A    between atoms: _907  and  _908
REMARK  373  A    between atoms: _908  and  _909
REMARK  374  A    between atoms: _913  and  _915
REMARK  375  A    between atoms: _915  and  _916
REMARK  376  A    between atoms: _915  and  _918
REMARK  377  A    between atoms: _918  and  _919
REMARK  378  A    between atoms: _924  and  _925
REMARK  379  A    between atoms: _927  and  _929
REMARK  380  A    between atoms: _929  and  _930
REMARK  381  A    between atoms: _933  and  _935
REMARK  382  A    between atoms: _935  and  _936
REMARK                            x       y       z     vdW  Elec       q    Type
REMARK                         _______ _______ _______ _____ _____    ______ ____
ROOT
ATOM      1  O   HOH     1      29.352  60.973  50.795  0.00  0.00    +0.000 OA
ENDROOT
TORSDOF 0
REMARK  Name = ../refined-set-2016/2xeg/2xeg_pocket.pdb
REMARK  382 active torsions:
REMARK  status: ('A' for Active; 'I' for Inactive)
REMARK    1  A    between atoms: _1  and  _3
REMARK    2  A    between atoms: _3  and  _4
REMARK    3  A    between atoms: _7  and  _9
REMARK    4  A    between atoms: _9  and  _10
REMARK    5  A    between atoms: _9  and  _12
REMARK    6  A    between atoms: _12  and  _13
REMARK    7  A    between atoms: _19  and  _21
REMARK    8  A    between atoms: _21  and  _22
REMARK    9  A    between atoms: _21  and  _24
REMARK   10  A    between atoms: _24  and  _25
REMARK   11  A    between atoms: _30  and  _31
REMARK   12  A    between atoms: _33  and  _35
REMARK   13  A    between atoms: _35  and  _36
REMARK   14  A    between atoms: _38  and  _40
REMARK   15  A    between atoms: _40  and  _41
REMARK   16  A    between atoms: _40  and  _43
REMARK   17  A    between atoms: _43  and  _44
REMARK   18  A    between atoms: _44  and  _45
REMARK   19  A    between atoms: _45  and  _46
REMARK   20  A    between atoms: _46  and  _47
REMARK   21  A    between atoms: _51  and  _53
REMARK   22  A    between atoms: _53  and  _54
REMARK   23  A    between atoms: _53  and  _56
REMARK   24  A    between atoms: _59  and  _61
REMARK   25  A    between atoms: _61  and  _62
REMARK   26  A    between atoms: _61  and  _64
REMARK   27  A    between atoms: _64  and  _65
REMARK   28  A    between atoms: _71  and  _73
REMARK   29  A    between atoms: _73  and  _74
REMARK   30  A    between atoms: _73  and  _76
REMARK   31  A    between atoms: _76  and  _77
REMARK   32  A    between atoms: _77  and  _78
REMARK   33  A    between atoms: _78  and  _79
REMARK   34  A    between atoms: _88  and  _90
REMARK   35  A    between atoms: _90  and  _91
REMARK   36  A    between atoms: _93  and  _95
REMARK   37  A    between atoms: _95  and  _96
REMARK   38  A    between atoms: _95  and  _98
REMARK   39  A    between atoms: _98  and  _99
REMARK   40  A    between atoms: _99  and  _100
REMARK   41  A    between atoms: _100  and  _101
REMARK   42  A    between atoms: _101  and  _102
REMARK   43  A    between atoms: _106  and  _108
REMARK   44  A    between atoms: _108  and  _109
REMARK   45  A    between atoms: _108  and  _111
REMARK   46  A    between atoms: _111  and  _112
REMARK   47  A    between atoms: _115  and  _117
REMARK   48  A    between atoms: _117  and  _118
REMARK   49  A    between atoms: _117  and  _120
REMARK   50  A    between atoms: _120  and  _121
REMARK   51  A    between atoms: _126  and  _127
REMARK   52  A    between atoms: _129  and  _131
REMARK   53  A    between atoms: _131  and  _132
REMARK   54  A    between atoms: _131  and  _134
REMARK   55  A    between atoms: _134  and  _135
REMARK   56  A    between atoms: _135  and  _136
REMARK   57  A    between atoms: _141  and  _143
REMARK   58  A    between atoms: _143  and  _144
REMARK   59  A    between atoms: _143  and  _146
REMARK   60  A    between atoms: _146  and  _147
REMARK   61  A    between atoms: _147  and  _148
REMARK   62  A    between atoms: _148  and  _149
REMARK   63  A    between atoms: _158  and  _160
REMARK   64  A    between atoms: _160  and  _161
REMARK   65  A    between atoms: _163  and  _165
REMARK   66  A    between atoms: _165  and  _166
REMARK   67  A    between atoms: _165  and  _168
REMARK   68  A    between atoms: _168  and  _169
REMARK   69  A    between atoms: _174  and  _176
REMARK   70  A    between atoms: _176  and  _177
REMARK   71  A    between atoms: _176  and  _179
REMARK   72  A    between atoms: _179  and  _180
REMARK   73  A    between atoms: _183  and  _185
REMARK   74  A    between atoms: _185  and  _186
REMARK   75  A    between atoms: _185  and  _188
REMARK   76  A    between atoms: _188  and  _189
REMARK   77  A    between atoms: _192  and  _194
REMARK   78  A    between atoms: _194  and  _195
REMARK   79  A    between atoms: _194  and  _197
REMARK   80  A    between atoms: _197  and  _198
REMARK   81  A    between atoms: _203  and  _205
REMARK   82  A    between atoms: _205  and  _206
REMARK   83  A    between atoms: _205  and  _208
REMARK   84  A    between atoms: _208  and  _209
REMARK   85  A    between atoms: _212  and  _214
REMARK   86  A    between atoms: _214  and  _215
REMARK   87  A    between atoms: _214  and  _217
REMARK   88  A    between atoms: _217  and  _218
REMARK   89  A    between atoms: _223  and  _225
REMARK   90  A    between atoms: _225  and  _226
REMARK   91  A    between atoms: _228  and  _230
REMARK   92  A    between atoms: _230  and  _231
REMARK   93  A    between atoms: _230  and  _233
REMARK   94  A    between atoms: _233  and  _234
REMARK   95  A    between atoms: _238  and  ZN_939
REMARK   96  A    between atoms: _239  and  _241
REMARK   97  A    between atoms: _241  and  _242
REMARK   98  A    between atoms: _241  and  _244
REMARK   99  A    between atoms: _244  and  _245
REMARK  100  A    between atoms: _248  and  _250
REMARK  101  A    between atoms: _250  and  _251
REMARK  102  A    between atoms: _250  and  _253
REMARK  103  A    between atoms: _253  and  _254
REMARK  104  A    between atoms: _264  and  _266
REMARK  105  A    between atoms: _266  and  _267
REMARK  106  A    between atoms: _266  and  _269
REMARK  107  A    between atoms: _269  and  _270
REMARK  108  A    between atoms: _273  and  _275
REMARK  109  A    between atoms: _275  and  _276
REMARK  110  A    between atoms: _275  and  _278
REMARK  111  A    between atoms: _278  and  _279
REMARK  112  A    between atoms: _279  and  _280
REMARK  113  A    between atoms: _279  and  _281
REMARK  114  A    between atoms: _280  and  ZN_939
REMARK  115  A    between atoms: _281  and  ZN_938
REMARK  116  A    between atoms: _283  and  _284
REMARK  117  A    between atoms: _289  and  _291
REMARK  118  A    between atoms: _291  and  _292
REMARK  119  A    between atoms: _295  and  _297
REMARK  120  A    between atoms: _297  and  _298
REMARK  121  A    between atoms: _297  and  _300
REMARK  122  A    between atoms: _300  and  _301
REMARK  123  A    between atoms: _301  and  _302
REMARK  124  A    between atoms: _305  and  _307
REMARK  125  A    between atoms: _307  and  _308
REMARK  126  A    between atoms: _307  and  _310
REMARK  127  A    between atoms: _310  and  _311
REMARK  128  A    between atoms: _311  and  _312
REMARK  129  A    between atoms: _312  and  _314
REMARK  130  A    between atoms: _314  and  ZN_938
REMARK  131  A    between atoms: _315  and  _317
REMARK  132  A    between atoms: _317  and  _318
REMARK  133  A    between atoms: _317  and  _320
REMARK  134  A    between atoms: _320  and  _321
REMARK  135  A    between atoms: _327  and  _329
REMARK  136  A    between atoms: _329  and  _330
REMARK  137  A    between atoms: _332  and  _334
REMARK  138  A    between atoms: _334  and  _335
REMARK  139  A    between atoms: _334  and  _337
REMARK  140  A    between atoms: _337  and  _338
REMARK  141  A    between atoms: _341  and  _343
REMARK  142  A    between atoms: _343  and  _344
REMARK  143  A    between atoms: _343  and  _346
REMARK  144  A    between atoms: _346  and  _347
REMARK  145  A    between atoms: _350  and  _352
REMARK  146  A    between atoms: _352  and  _353
REMARK  147  A    between atoms: _352  and  _355
REMARK  148  A    between atoms: _355  and  _356
REMARK  149  A    between atoms: _361  and  _363
REMARK  150  A    between atoms: _363  and  _364
REMARK  151  A    between atoms: _363  and  _366
REMARK  152  A    between atoms: _366  and  _367
REMARK  153  A    between atoms: _367  and  _369
REMARK  154  A    between atoms: _369  and  ZN_939
REMARK  155  A    between atoms: _370  and  _372
REMARK  156  A    between atoms: _372  and  _373
REMARK  157  A    between atoms: _372  and  _375
REMARK  158  A    between atoms: _375  and  _376
REMARK  159  A    between atoms: _378  and  _380
REMARK  160  A    between atoms: _380  and  _381
REMARK  161  A    between atoms: _380  and  _383
REMARK  162  A    between atoms: _383  and  _384
REMARK  163  A    between atoms: _386  and  _388
REMARK  164  A    between atoms: _388  and  _389
REMARK  165  A    between atoms: _388  and  _391
REMARK  166  A    between atoms: _391  and  _392
REMARK  167  A    between atoms: _395  and  _397
REMARK  168  A    between atoms: _397  and  _398
REMARK  169  A    between atoms: _397  and  _400
REMARK  170  A    between atoms: _400  and  _401
REMARK  171  A    between atoms: _401  and  _402
REMARK  172  A    between atoms: _405  and  _407
REMARK  173  A    between atoms: _407  and  _408
REMARK  174  A    between atoms: _407  and  _410
REMARK  175  A    between atoms: _410  and  _411
REMARK  176  A    between atoms: _416  and  _417
REMARK  177  A    between atoms: _419  and  _421
REMARK  178  A    between atoms: _421  and  _422
REMARK  179  A    between atoms: _421  and  _424
REMARK  180  A    between atoms: _424  and  _425
REMARK  181  A    between atoms: _428  and  _430
REMARK  182  A    between atoms: _430  and  _431
REMARK  183  A    between atoms: _430  and  _433
REMARK  184  A    between atoms: _433  and  _434
REMARK  185  A    between atoms: _437  and  _439
REMARK  186  A    between atoms: _439  and  _440
REMARK  187  A    between atoms: _439  and  _442
REMARK  188  A    between atoms: _442  and  _443
REMARK  189  A    between atoms: _443  and  _444
REMARK  190  A    between atoms: _444  and  _445
REMARK  191  A    between atoms: _454  and  _456
REMARK  192  A    between atoms: _456  and  _457
REMARK  193  A    between atoms: _456  and  _459
REMARK  194  A    between atoms: _462  and  _464
REMARK  195  A    between atoms: _464  and  _465
REMARK  196  A    between atoms: _464  and  _467
REMARK  197  A    between atoms: _467  and  _468
REMARK  198  A    between atoms: _471  and  _473
REMARK  199  A    between atoms: _473  and  _474
REMARK  200  A    between atoms: _473  and  _476
REMARK  201  A    between atoms: _476  and  _477
REMARK  202  A    between atoms: _487  and  _489
REMARK  203  A    between atoms: _489  and  _490
REMARK  204  A    between atoms: _489  and  _492
REMARK  205  A    between atoms: _492  and  _493
REMARK  206  A    between atoms: _493  and  _494
REMARK  207  A    between atoms: _494  and  _495
REMARK  208  A    between atoms: _495  and  _496
REMARK  209  A    between atoms: _500  and  _502
REMARK  210  A    between atoms: _502  and  _503
REMARK  211  A    between atoms: _502  and  _505
REMARK  212  A    between atoms: _505  and  _506
REMARK  213  A    between atoms: _509  and  _510
REMARK  214  A    between atoms: _516  and  _517
REMARK  215  A    between atoms: _522  and  _524
REMARK  216  A    between atoms: _524  and  _525
REMARK  217  A    between atoms: _524  and  _527
REMARK  218  A    between atoms: _527  and  _528
REMARK  219  A    between atoms: _528  and  _529
REMARK  220  A    between atoms: _529  and  _530
REMARK  221  A    between atoms: _539  and  _541
REMARK  222  A    between atoms: _541  and  _542
REMARK  223  A    between atoms: _541  and  _544
REMARK  224  A    between atoms: _544  and  _545
REMARK  225  A    between atoms: _548  and  _550
REMARK  226  A    between atoms: _550  and  _551
REMARK  227  A    between atoms: _550  and  _553
REMARK  228  A    between atoms: _553  and  _554
REMARK  229  A    between atoms: _556  and  _558
REMARK  230  A    between atoms: _558  and  _559
REMARK  231  A    between atoms: _558  and  _561
REMARK  232  A    between atoms: _561  and  _562
REMARK  233  A    between atoms: _562  and  _563
REMARK  234  A    between atoms: _563  and  _564
REMARK  235  A    between atoms: _564  and  _565
REMARK  236  A    between atoms: _569  and  _571
REMARK  237  A    between atoms: _571  and  _572
REMARK  238  A    between atoms: _571  and  _574
REMARK  239  A    between atoms: _574  and  _575
REMARK  240  A    between atoms: _578  and  _580
REMARK  241  A    between atoms: _580  and  _581
REMARK  242  A    between atoms: _583  and  _585
REMARK  243  A    between atoms: _585  and  _586
REMARK  244  A    between atoms: _585  and  _588
REMARK  245  A    between atoms: _588  and  _589
REMARK  246  A    between atoms: _591  and  _593
REMARK  247  A    between atoms: _593  and  _594
REMARK  248  A    between atoms: _596  and  _598
REMARK  249  A    between atoms: _598  and  _599
REMARK  250  A    between atoms: _598  and  _601
REMARK  251  A    between atoms: _601  and  _602
REMARK  252  A    between atoms: _607  and  _609
REMARK  253  A    between atoms: _609  and  _610
REMARK  254  A    between atoms: _609  and  _612
REMARK  255  A    between atoms: _612  and  _613
REMARK  256  A    between atoms: _616  and  _618
REMARK  257  A    between atoms: _618  and  _619
REMARK  258  A    between atoms: _618  and  _621
REMARK  259  A    between atoms: _621  and  _622
REMARK  260  A    between atoms: _628  and  _630
REMARK  261  A    between atoms: _630  and  _631
REMARK  262  A    between atoms: _630  and  _633
REMARK  263  A    between atoms: _633  and  _634
REMARK  264  A    between atoms: _634  and  _635
REMARK  265  A    between atoms: _638  and  _640
REMARK  266  A    between atoms: _640  and  _641
REMARK  267  A    between atoms: _640  and  _643
REMARK  268  A    between atoms: _643  and  _644
REMARK  269  A    between atoms: _644  and  _645
REMARK  270  A    between atoms: _645  and  _646
REMARK  271  A    between atoms: _655  and  _657
REMARK  272  A    between atoms: _657  and  _658
REMARK  273  A    between atoms: _657  and  _660
REMARK  274  A    between atoms: _660  and  _661
REMARK  275  A    between atoms: _661  and  _662
REMARK  276  A    between atoms: _662  and  _663
REMARK  277  A    between atoms: _672  and  _674
REMARK  278  A    between atoms: _674  and  _675
REMARK  279  A    between atoms: _674  and  _677
REMARK  280  A    between atoms: _677  and  _678
REMARK  281  A    between atoms: _683  and  _684
REMARK  282  A    between atoms: _686  and  _688
REMARK  283  A    between atoms: _688  and  _689
REMARK  284  A    between atoms: _688  and  _691
REMARK  285  A    between atoms: _691  and  _692
REMARK  286  A    between atoms: _695  and  _697
REMARK  287  A    between atoms: _697  and  _698
REMARK  288  A    between atoms: _697  and  _700
REMARK  289  A    between atoms: _700  and  _701
REMARK  290  A    between atoms: _701  and  _702
REMARK  291  A    between atoms: _702  and  _703
REMARK  292  A    between atoms: _703  and  _704
REMARK  293  A    between atoms: _708  and  _710
REMARK  294  A    between atoms: _710  and  _711
REMARK  295  A    between atoms: _710  and  _713
REMARK  296  A    between atoms: _713  and  _714
REMARK  297  A    between atoms: _719  and  _721
REMARK  298  A    between atoms: _721  and  _722
REMARK  299  A    between atoms: _721  and  _724
REMARK  300  A    between atoms: _724  and  _725
REMARK  301  A    between atoms: _735  and  _737
REMARK  302  A    between atoms: _737  and  _738
REMARK  303  A    between atoms: _737  and  _740
REMARK  304  A    between atoms: _740  and  _741
REMARK  305  A    between atoms: _741  and  _742
REMARK  306  A    between atoms: _745  and  _747
REMARK  307  A    between atoms: _747  and  _748
REMARK  308  A    between atoms: _747  and  _750
REMARK  309  A    between atoms: _750  and  _751
REMARK  310  A    between atoms: _754  and  _756
REMARK  311  A    between atoms: _756  and  _757
REMARK  312  A    between atoms: _756  and  _759
REMARK  313  A    between atoms: _759  and  _760
REMARK  314  A    between atoms: _765  and  _767
REMARK  315  A    between atoms: _767  and  _768
REMARK  316  A    between atoms: _767  and  _770
REMARK  317  A    between atoms: _770  and  _771
REMARK  318  A    between atoms: _777  and  _779
REMARK  319  A    between atoms: _779  and  _780
REMARK  320  A    between atoms: _779  and  _782
REMARK  321  A    between atoms: _782  and  _783
REMARK  322  A    between atoms: _785  and  _787
REMARK  323  A    between atoms: _787  and  _788
REMARK  324  A    between atoms: _790  and  _792
REMARK  325  A    between atoms: _792  and  _793
REMARK  326  A    between atoms: _792  and  _795
REMARK  327  A    between atoms: _795  and  _796
REMARK  328  A    between atoms: _801  and  _802
REMARK  329  A    between atoms: _804  and  _806
REMARK  330  A    between atoms: _806  and  _807
REMARK  331  A    between atoms: _806  and  _809
REMARK  332  A    between atoms: _809  and  _810
REMARK  333  A    between atoms: _815  and  _816
REMARK  334  A    between atoms: _818  and  _820
REMARK  335  A    between atoms: _820  and  _821
REMARK  336  A    between atoms: _820  and  _823
REMARK  337  A    between atoms: _823  and  _824
REMARK  338  A    between atoms: _828  and  ZN_938
REMARK  339  A    between atoms: _829  and  _831
REMARK  340  A    between atoms: _831  and  _832
REMARK  341  A    between atoms: _831  and  _834
REMARK  342  A    between atoms: _834  and  _835
REMARK  343  A    between atoms: _835  and  _836
REMARK  344  A    between atoms: _839  and  _841
REMARK  345  A    between atoms: _841  and  _842
REMARK  346  A    between atoms: _841  and  _844
REMARK  347  A    between atoms: _844  and  _845
REMARK  348  A    between atoms: _845  and  _846
REMARK  349  A    between atoms: _846  and  _847
REMARK  350  A    between atoms: _856  and  _858
REMARK  351  A    between atoms: _858  and  _859
REMARK  352  A    between atoms: _858  and  _861
REMARK  353  A    between atoms: _861  and  _862
REMARK  354  A    between atoms: _867  and  _868
REMARK  355  A    between atoms: _870  and  _872
REMARK  356  A    between atoms: _872  and  _873
REMARK  357  A    between atoms: _872  and  _875
REMARK  358  A    between atoms: _875  and  _876
REMARK  359  A    between atoms: _878  and  _880
REMARK  360  A    between atoms: _880  and  _881
REMARK  361  A    between atoms: _880  and  _883
REMARK  362  A    between atoms: _883  and  _884
REMARK  363  A    between atoms: _889  and  _891
REMARK  364  A    between atoms: _891  and  _892
REMARK  365  A    between atoms: _891  and  _894
REMARK  366  A    between atoms: _894  and  _895
REMARK  367  A    between atoms: _900  and  _902
REMARK  368  A    between atoms: _902  and  _903
REMARK  369  A    between atoms: _902  and  _905
REMARK  370  A    between atoms: _905  and  _906
REMARK  371  A    between atoms: _906  and  _907
REMARK  372  A    between atoms: _907  and  _908
REMARK  373  A    between atoms: _908  and  _909
REMARK  374  A    between atoms: _913  and  _915
REMARK  375  A    between atoms: _915  and  _916
REMARK  376  A    between atoms: _915  and  _918
REMARK  377  A    between atoms: _918  and  _919
REMARK  378  A    between atoms: _924  and  _925
REMARK  379  A    between atoms: _927  and  _929
REMARK  380  A    between atoms: _929  and  _930
REMARK  381  A    between atoms: _933  and  _935
REMARK  382  A    between atoms: _935  and  _936
REMARK                            x       y       z     vdW  Elec       q    Type
REMARK                         _______ _______ _______ _____ _____    ______ ____
ROOT
ATOM      1  O   HOH     1      27.330  54.079  50.855  0.00  0.00    +0.000 OA
ENDROOT
TORSDOF 0
REMARK  Name = ../refined-set-2016/2xeg/2xeg_pocket.pdb
REMARK  382 active torsions:
REMARK  status: ('A' for Active; 'I' for Inactive)
REMARK    1  A    between atoms: _1  and  _3
REMARK    2  A    between atoms: _3  and  _4
REMARK    3  A    between atoms: _7  and  _9
REMARK    4  A    between atoms: _9  and  _10
REMARK    5  A    between atoms: _9  and  _12
REMARK    6  A    between atoms: _12  and  _13
REMARK    7  A    between atoms: _19  and  _21
REMARK    8  A    between atoms: _21  and  _22
REMARK    9  A    between atoms: _21  and  _24
REMARK   10  A    between atoms: _24  and  _25
REMARK   11  A    between atoms: _30  and  _31
REMARK   12  A    between atoms: _33  and  _35
REMARK   13  A    between atoms: _35  and  _36
REMARK   14  A    between atoms: _38  and  _40
REMARK   15  A    between atoms: _40  and  _41
REMARK   16  A    between atoms: _40  and  _43
REMARK   17  A    between atoms: _43  and  _44
REMARK   18  A    between atoms: _44  and  _45
REMARK   19  A    between atoms: _45  and  _46
REMARK   20  A    between atoms: _46  and  _47
REMARK   21  A    between atoms: _51  and  _53
REMARK   22  A    between atoms: _53  and  _54
REMARK   23  A    between atoms: _53  and  _56
REMARK   24  A    between atoms: _59  and  _61
REMARK   25  A    between atoms: _61  and  _62
REMARK   26  A    between atoms: _61  and  _64
REMARK   27  A    between atoms: _64  and  _65
REMARK   28  A    between atoms: _71  and  _73
REMARK   29  A    between atoms: _73  and  _74
REMARK   30  A    between atoms: _73  and  _76
REMARK   31  A    between atoms: _76  and  _77
REMARK   32  A    between atoms: _77  and  _78
REMARK   33  A    between atoms: _78  and  _79
REMARK   34  A    between atoms: _88  and  _90
REMARK   35  A    between atoms: _90  and  _91
REMARK   36  A    between atoms: _93  and  _95
REMARK   37  A    between atoms: _95  and  _96
REMARK   38  A    between atoms: _95  and  _98
REMARK   39  A    between atoms: _98  and  _99
REMARK   40  A    between atoms: _99  and  _100
REMARK   41  A    between atoms: _100  and  _101
REMARK   42  A    between atoms: _101  and  _102
REMARK   43  A    between atoms: _106  and  _108
REMARK   44  A    between atoms: _108  and  _109
REMARK   45  A    between atoms: _108  and  _111
REMARK   46  A    between atoms: _111  and  _112
REMARK   47  A    between atoms: _115  and  _117
REMARK   48  A    between atoms: _117  and  _118
REMARK   49  A    between atoms: _117  and  _120
REMARK   50  A    between atoms: _120  and  _121
REMARK   51  A    between atoms: _126  and  _127
REMARK   52  A    between atoms: _129  and  _131
REMARK   53  A    between atoms: _131  and  _132
REMARK   54  A    between atoms: _131  and  _134
REMARK   55  A    between atoms: _134  and  _135
REMARK   56  A    between atoms: _135  and  _136
REMARK   57  A    between atoms: _141  and  _143
REMARK   58  A    between atoms: _143  and  _144
REMARK   59  A    between atoms: _143  and  _146
REMARK   60  A    between atoms: _146  and  _147
REMARK   61  A    between atoms: _147  and  _148
REMARK   62  A    between atoms: _148  and  _149
REMARK   63  A    between atoms: _158  and  _160
REMARK   64  A    between atoms: _160  and  _161
REMARK   65  A    between atoms: _163  and  _165
REMARK   66  A    between atoms: _165  and  _166
REMARK   67  A    between atoms: _165  and  _168
REMARK   68  A    between atoms: _168  and  _169
REMARK   69  A    between atoms: _174  and  _176
REMARK   70  A    between atoms: _176  and  _177
REMARK   71  A    between atoms: _176  and  _179
REMARK   72  A    between atoms: _179  and  _180
REMARK   73  A    between atoms: _183  and  _185
REMARK   74  A    between atoms: _185  and  _186
REMARK   75  A    between atoms: _185  and  _188
REMARK   76  A    between atoms: _188  and  _189
REMARK   77  A    between atoms: _192  and  _194
REMARK   78  A    between atoms: _194  and  _195
REMARK   79  A    between atoms: _194  and  _197
REMARK   80  A    between atoms: _197  and  _198
REMARK   81  A    between atoms: _203  and  _205
REMARK   82  A    between atoms: _205  and  _206
REMARK   83  A    between atoms: _205  and  _208
REMARK   84  A    between atoms: _208  and  _209
REMARK   85  A    between atoms: _212  and  _214
REMARK   86  A    between atoms: _214  and  _215
REMARK   87  A    between atoms: _214  and  _217
REMARK   88  A    between atoms: _217  and  _218
REMARK   89  A    between atoms: _223  and  _225
REMARK   90  A    between atoms: _225  and  _226
REMARK   91  A    between atoms: _228  and  _230
REMARK   92  A    between atoms: _230  and  _231
REMARK   93  A    between atoms: _230  and  _233
REMARK   94  A    between atoms: _233  and  _234
REMARK   95  A    between atoms: _238  and  ZN_939
REMARK   96  A    between atoms: _239  and  _241
REMARK   97  A    between atoms: _241  and  _242
REMARK   98  A    between atoms: _241  and  _244
REMARK   99  A    between atoms: _244  and  _245
REMARK  100  A    between atoms: _248  and  _250
REMARK  101  A    between atoms: _250  and  _251
REMARK  102  A    between atoms: _250  and  _253
REMARK  103  A    between atoms: _253  and  _254
REMARK  104  A    between atoms: _264  and  _266
REMARK  105  A    between atoms: _266  and  _267
REMARK  106  A    between atoms: _266  and  _269
REMARK  107  A    between atoms: _269  and  _270
REMARK  108  A    between atoms: _273  and  _275
REMARK  109  A    between atoms: _275  and  _276
REMARK  110  A    between atoms: _275  and  _278
REMARK  111  A    between atoms: _278  and  _279
REMARK  112  A    between atoms: _279  and  _280
REMARK  113  A    between atoms: _279  and  _281
REMARK  114  A    between atoms: _280  and  ZN_939
REMARK  115  A    between atoms: _281  and  ZN_938
REMARK  116  A    between atoms: _283  and  _284
REMARK  117  A    between atoms: _289  and  _291
REMARK  118  A    between atoms: _291  and  _292
REMARK  119  A    between atoms: _295  and  _297
REMARK  120  A    between atoms: _297  and  _298
REMARK  121  A    between atoms: _297  and  _300
REMARK  122  A    between atoms: _300  and  _301
REMARK  123  A    between atoms: _301  and  _302
REMARK  124  A    between atoms: _305  and  _307
REMARK  125  A    between atoms: _307  and  _308
REMARK  126  A    between atoms: _307  and  _310
REMARK  127  A    between atoms: _310  and  _311
REMARK  128  A    between atoms: _311  and  _312
REMARK  129  A    between atoms: _312  and  _314
REMARK  130  A    between atoms: _314  and  ZN_938
REMARK  131  A    between atoms: _315  and  _317
REMARK  132  A    between atoms: _317  and  _318
REMARK  133  A    between atoms: _317  and  _320
REMARK  134  A    between atoms: _320  and  _321
REMARK  135  A    between atoms: _327  and  _329
REMARK  136  A    between atoms: _329  and  _330
REMARK  137  A    between atoms: _332  and  _334
REMARK  138  A    between atoms: _334  and  _335
REMARK  139  A    between atoms: _334  and  _337
REMARK  140  A    between atoms: _337  and  _338
REMARK  141  A    between atoms: _341  and  _343
REMARK  142  A    between atoms: _343  and  _344
REMARK  143  A    between atoms: _343  and  _346
REMARK  144  A    between atoms: _346  and  _347
REMARK  145  A    between atoms: _350  and  _352
REMARK  146  A    between atoms: _352  and  _353
REMARK  147  A    between atoms: _352  and  _355
REMARK  148  A    between atoms: _355  and  _356
REMARK  149  A    between atoms: _361  and  _363
REMARK  150  A    between atoms: _363  and  _364
REMARK  151  A    between atoms: _363  and  _366
REMARK  152  A    between atoms: _366  and  _367
REMARK  153  A    between atoms: _367  and  _369
REMARK  154  A    between atoms: _369  and  ZN_939
REMARK  155  A    between atoms: _370  and  _372
REMARK  156  A    between atoms: _372  and  _373
REMARK  157  A    between atoms: _372  and  _375
REMARK  158  A    between atoms: _375  and  _376
REMARK  159  A    between atoms: _378  and  _380
REMARK  160  A    between atoms: _380  and  _381
REMARK  161  A    between atoms: _380  and  _383
REMARK  162  A    between atoms: _383  and  _384
REMARK  163  A    between atoms: _386  and  _388
REMARK  164  A    between atoms: _388  and  _389
REMARK  165  A    between atoms: _388  and  _391
REMARK  166  A    between atoms: _391  and  _392
REMARK  167  A    between atoms: _395  and  _397
REMARK  168  A    between atoms: _397  and  _398
REMARK  169  A    between atoms: _397  and  _400
REMARK  170  A    between atoms: _400  and  _401
REMARK  171  A    between atoms: _401  and  _402
REMARK  172  A    between atoms: _405  and  _407
REMARK  173  A    between atoms: _407  and  _408
REMARK  174  A    between atoms: _407  and  _410
REMARK  175  A    between atoms: _410  and  _411
REMARK  176  A    between atoms: _416  and  _417
REMARK  177  A    between atoms: _419  and  _421
REMARK  178  A    between atoms: _421  and  _422
REMARK  179  A    between atoms: _421  and  _424
REMARK  180  A    between atoms: _424  and  _425
REMARK  181  A    between atoms: _428  and  _430
REMARK  182  A    between atoms: _430  and  _431
REMARK  183  A    between atoms: _430  and  _433
REMARK  184  A    between atoms: _433  and  _434
REMARK  185  A    between atoms: _437  and  _439
REMARK  186  A    between atoms: _439  and  _440
REMARK  187  A    between atoms: _439  and  _442
REMARK  188  A    between atoms: _442  and  _443
REMARK  189  A    between atoms: _443  and  _444
REMARK  190  A    between atoms: _444  and  _445
REMARK  191  A    between atoms: _454  and  _456
REMARK  192  A    between atoms: _456  and  _457
REMARK  193  A    between atoms: _456  and  _459
REMARK  194  A    between atoms: _462  and  _464
REMARK  195  A    between atoms: _464  and  _465
REMARK  196  A    between atoms: _464  and  _467
REMARK  197  A    between atoms: _467  and  _468
REMARK  198  A    between atoms: _471  and  _473
REMARK  199  A    between atoms: _473  and  _474
REMARK  200  A    between atoms: _473  and  _476
REMARK  201  A    between atoms: _476  and  _477
REMARK  202  A    between atoms: _487  and  _489
REMARK  203  A    between atoms: _489  and  _490
REMARK  204  A    between atoms: _489  and  _492
REMARK  205  A    between atoms: _492  and  _493
REMARK  206  A    between atoms: _493  and  _494
REMARK  207  A    between atoms: _494  and  _495
REMARK  208  A    between atoms: _495  and  _496
REMARK  209  A    between atoms: _500  and  _502
REMARK  210  A    between atoms: _502  and  _503
REMARK  211  A    between atoms: _502  and  _505
REMARK  212  A    between atoms: _505  and  _506
REMARK  213  A    between atoms: _509  and  _510
REMARK  214  A    between atoms: _516  and  _517
REMARK  215  A    between atoms: _522  and  _524
REMARK  216  A    between atoms: _524  and  _525
REMARK  217  A    between atoms: _524  and  _527
REMARK  218  A    between atoms: _527  and  _528
REMARK  219  A    between atoms: _528  and  _529
REMARK  220  A    between atoms: _529  and  _530
REMARK  221  A    between atoms: _539  and  _541
REMARK  222  A    between atoms: _541  and  _542
REMARK  223  A    between atoms: _541  and  _544
REMARK  224  A    between atoms: _544  and  _545
REMARK  225  A    between atoms: _548  and  _550
REMARK  226  A    between atoms: _550  and  _551
REMARK  227  A    between atoms: _550  and  _553
REMARK  228  A    between atoms: _553  and  _554
REMARK  229  A    between atoms: _556  and  _558
REMARK  230  A    between atoms: _558  and  _559
REMARK  231  A    between atoms: _558  and  _561
REMARK  232  A    between atoms: _561  and  _562
REMARK  233  A    between atoms: _562  and  _563
REMARK  234  A    between atoms: _563  and  _564
REMARK  235  A    between atoms: _564  and  _565
REMARK  236  A    between atoms: _569  and  _571
REMARK  237  A    between atoms: _571  and  _572
REMARK  238  A    between atoms: _571  and  _574
REMARK  239  A    between atoms: _574  and  _575
REMARK  240  A    between atoms: _578  and  _580
REMARK  241  A    between atoms: _580  and  _581
REMARK  242  A    between atoms: _583  and  _585
REMARK  243  A    between atoms: _585  and  _586
REMARK  244  A    between atoms: _585  and  _588
REMARK  245  A    between atoms: _588  and  _589
REMARK  246  A    between atoms: _591  and  _593
REMARK  247  A    between atoms: _593  and  _594
REMARK  248  A    between atoms: _596  and  _598
REMARK  249  A    between atoms: _598  and  _599
REMARK  250  A    between atoms: _598  and  _601
REMARK  251  A    between atoms: _601  and  _602
REMARK  252  A    between atoms: _607  and  _609
REMARK  253  A    between atoms: _609  and  _610
REMARK  254  A    between atoms: _609  and  _612
REMARK  255  A    between atoms: _612  and  _613
REMARK  256  A    between atoms: _616  and  _618
REMARK  257  A    between atoms: _618  and  _619
REMARK  258  A    between atoms: _618  and  _621
REMARK  259  A    between atoms: _621  and  _622
REMARK  260  A    between atoms: _628  and  _630
REMARK  261  A    between atoms: _630  and  _631
REMARK  262  A    between atoms: _630  and  _633
REMARK  263  A    between atoms: _633  and  _634
REMARK  264  A    between atoms: _634  and  _635
REMARK  265  A    between atoms: _638  and  _640
REMARK  266  A    between atoms: _640  and  _641
REMARK  267  A    between atoms: _640  and  _643
REMARK  268  A    between atoms: _643  and  _644
REMARK  269  A    between atoms: _644  and  _645
REMARK  270  A    between atoms: _645  and  _646
REMARK  271  A    between atoms: _655  and  _657
REMARK  272  A    between atoms: _657  and  _658
REMARK  273  A    between atoms: _657  and  _660
REMARK  274  A    between atoms: _660  and  _661
REMARK  275  A    between atoms: _661  and  _662
REMARK  276  A    between atoms: _662  and  _663
REMARK  277  A    between atoms: _672  and  _674
REMARK  278  A    between atoms: _674  and  _675
REMARK  279  A    between atoms: _674  and  _677
REMARK  280  A    between atoms: _677  and  _678
REMARK  281  A    between atoms: _683  and  _684
REMARK  282  A    between atoms: _686  and  _688
REMARK  283  A    between atoms: _688  and  _689
REMARK  284  A    between atoms: _688  and  _691
REMARK  285  A    between atoms: _691  and  _692
REMARK  286  A    between atoms: _695  and  _697
REMARK  287  A    between atoms: _697  and  _698
REMARK  288  A    between atoms: _697  and  _700
REMARK  289  A    between atoms: _700  and  _701
REMARK  290  A    between atoms: _701  and  _702
REMARK  291  A    between atoms: _702  and  _703
REMARK  292  A    between atoms: _703  and  _704
REMARK  293  A    between atoms: _708  and  _710
REMARK  294  A    between atoms: _710  and  _711
REMARK  295  A    between atoms: _710  and  _713
REMARK  296  A    between atoms: _713  and  _714
REMARK  297  A    between atoms: _719  and  _721
REMARK  298  A    between atoms: _721  and  _722
REMARK  299  A    between atoms: _721  and  _724
REMARK  300  A    between atoms: _724  and  _725
REMARK  301  A    between atoms: _735  and  _737
REMARK  302  A    between atoms: _737  and  _738
REMARK  303  A    between atoms: _737  and  _740
REMARK  304  A    between atoms: _740  and  _741
REMARK  305  A    between atoms: _741  and  _742
REMARK  306  A    between atoms: _745  and  _747
REMARK  307  A    between atoms: _747  and  _748
REMARK  308  A    between atoms: _747  and  _750
REMARK  309  A    between atoms: _750  and  _751
REMARK  310  A    between atoms: _754  and  _756
REMARK  311  A    between atoms: _756  and  _757
REMARK  312  A    between atoms: _756  and  _759
REMARK  313  A    between atoms: _759  and  _760
REMARK  314  A    between atoms: _765  and  _767
REMARK  315  A    between atoms: _767  and  _768
REMARK  316  A    between atoms: _767  and  _770
REMARK  317  A    between atoms: _770  and  _771
REMARK  318  A    between atoms: _777  and  _779
REMARK  319  A    between atoms: _779  and  _780
REMARK  320  A    between atoms: _779  and  _782
REMARK  321  A    between atoms: _782  and  _783
REMARK  322  A    between atoms: _785  and  _787
REMARK  323  A    between atoms: _787  and  _788
REMARK  324  A    between atoms: _790  and  _792
REMARK  325  A    between atoms: _792  and  _793
REMARK  326  A    between atoms: _792  and  _795
REMARK  327  A    between atoms: _795  and  _796
REMARK  328  A    between atoms: _801  and  _802
REMARK  329  A    between atoms: _804  and  _806
REMARK  330  A    between atoms: _806  and  _807
REMARK  331  A    between atoms: _806  and  _809
REMARK  332  A    between atoms: _809  and  _810
REMARK  333  A    between atoms: _815  and  _816
REMARK  334  A    between atoms: _818  and  _820
REMARK  335  A    between atoms: _820  and  _821
REMARK  336  A    between atoms: _820  and  _823
REMARK  337  A    between atoms: _823  and  _824
REMARK  338  A    between atoms: _828  and  ZN_938
REMARK  339  A    between atoms: _829  and  _831
REMARK  340  A    between atoms: _831  and  _832
REMARK  341  A    between atoms: _831  and  _834
REMARK  342  A    between atoms: _834  and  _835
REMARK  343  A    between atoms: _835  and  _836
REMARK  344  A    between atoms: _839  and  _841
REMARK  345  A    between atoms: _841  and  _842
REMARK  346  A    between atoms: _841  and  _844
REMARK  347  A    between atoms: _844  and  _845
REMARK  348  A    between atoms: _845  and  _846
REMARK  349  A    between atoms: _846  and  _847
REMARK  350  A    between atoms: _856  and  _858
REMARK  351  A    between atoms: _858  and  _859
REMARK  352  A    between atoms: _858  and  _861
REMARK  353  A    between atoms: _861  and  _862
REMARK  354  A    between atoms: _867  and  _868
REMARK  355  A    between atoms: _870  and  _872
REMARK  356  A    between atoms: _872  and  _873
REMARK  357  A    between atoms: _872  and  _875
REMARK  358  A    between atoms: _875  and  _876
REMARK  359  A    between atoms: _878  and  _880
REMARK  360  A    between atoms: _880  and  _881
REMARK  361  A    between atoms: _880  and  _883
REMARK  362  A    between atoms: _883  and  _884
REMARK  363  A    between atoms: _889  and  _891
REMARK  364  A    between atoms: _891  and  _892
REMARK  365  A    between atoms: _891  and  _894
REMARK  366  A    between atoms: _894  and  _895
REMARK  367  A    between atoms: _900  and  _902
REMARK  368  A    between atoms: _902  and  _903
REMARK  369  A    between atoms: _902  and  _905
REMARK  370  A    between atoms: _905  and  _906
REMARK  371  A    between atoms: _906  and  _907
REMARK  372  A    between atoms: _907  and  _908
REMARK  373  A    between atoms: _908  and  _909
REMARK  374  A    between atoms: _913  and  _915
REMARK  375  A    between atoms: _915  and  _916
REMARK  376  A    between atoms: _915  and  _918
REMARK  377  A    between atoms: _918  and  _919
REMARK  378  A    between atoms: _924  and  _925
REMARK  379  A    between atoms: _927  and  _929
REMARK  380  A    between atoms: _929  and  _930
REMARK  381  A    between atoms: _933  and  _935
REMARK  382  A    between atoms: _935  and  _936
REMARK                            x       y       z     vdW  Elec       q    Type
REMARK                         _______ _______ _______ _____ _____    ______ ____
ROOT
ATOM      1  O   HOH     1      29.112  58.018  48.688  0.00  0.00    +0.000 OA
ENDROOT
TORSDOF 0
REMARK  Name = ../refined-set-2016/2xeg/2xeg_pocket.pdb
REMARK  382 active torsions:
REMARK  status: ('A' for Active; 'I' for Inactive)
REMARK    1  A    between atoms: _1  and  _3
REMARK    2  A    between atoms: _3  and  _4
REMARK    3  A    between atoms: _7  and  _9
REMARK    4  A    between atoms: _9  and  _10
REMARK    5  A    between atoms: _9  and  _12
REMARK    6  A    between atoms: _12  and  _13
REMARK    7  A    between atoms: _19  and  _21
REMARK    8  A    between atoms: _21  and  _22
REMARK    9  A    between atoms: _21  and  _24
REMARK   10  A    between atoms: _24  and  _25
REMARK   11  A    between atoms: _30  and  _31
REMARK   12  A    between atoms: _33  and  _35
REMARK   13  A    between atoms: _35  and  _36
REMARK   14  A    between atoms: _38  and  _40
REMARK   15  A    between atoms: _40  and  _41
REMARK   16  A    between atoms: _40  and  _43
REMARK   17  A    between atoms: _43  and  _44
REMARK   18  A    between atoms: _44  and  _45
REMARK   19  A    between atoms: _45  and  _46
REMARK   20  A    between atoms: _46  and  _47
REMARK   21  A    between atoms: _51  and  _53
REMARK   22  A    between atoms: _53  and  _54
REMARK   23  A    between atoms: _53  and  _56
REMARK   24  A    between atoms: _59  and  _61
REMARK   25  A    between atoms: _61  and  _62
REMARK   26  A    between atoms: _61  and  _64
REMARK   27  A    between atoms: _64  and  _65
REMARK   28  A    between atoms: _71  and  _73
REMARK   29  A    between atoms: _73  and  _74
REMARK   30  A    between atoms: _73  and  _76
REMARK   31  A    between atoms: _76  and  _77
REMARK   32  A    between atoms: _77  and  _78
REMARK   33  A    between atoms: _78  and  _79
REMARK   34  A    between atoms: _88  and  _90
REMARK   35  A    between atoms: _90  and  _91
REMARK   36  A    between atoms: _93  and  _95
REMARK   37  A    between atoms: _95  and  _96
REMARK   38  A    between atoms: _95  and  _98
REMARK   39  A    between atoms: _98  and  _99
REMARK   40  A    between atoms: _99  and  _100
REMARK   41  A    between atoms: _100  and  _101
REMARK   42  A    between atoms: _101  and  _102
REMARK   43  A    between atoms: _106  and  _108
REMARK   44  A    between atoms: _108  and  _109
REMARK   45  A    between atoms: _108  and  _111
REMARK   46  A    between atoms: _111  and  _112
REMARK   47  A    between atoms: _115  and  _117
REMARK   48  A    between atoms: _117  and  _118
REMARK   49  A    between atoms: _117  and  _120
REMARK   50  A    between atoms: _120  and  _121
REMARK   51  A    between atoms: _126  and  _127
REMARK   52  A    between atoms: _129  and  _131
REMARK   53  A    between atoms: _131  and  _132
REMARK   54  A    between atoms: _131  and  _134
REMARK   55  A    between atoms: _134  and  _135
REMARK   56  A    between atoms: _135  and  _136
REMARK   57  A    between atoms: _141  and  _143
REMARK   58  A    between atoms: _143  and  _144
REMARK   59  A    between atoms: _143  and  _146
REMARK   60  A    between atoms: _146  and  _147
REMARK   61  A    between atoms: _147  and  _148
REMARK   62  A    between atoms: _148  and  _149
REMARK   63  A    between atoms: _158  and  _160
REMARK   64  A    between atoms: _160  and  _161
REMARK   65  A    between atoms: _163  and  _165
REMARK   66  A    between atoms: _165  and  _166
REMARK   67  A    between atoms: _165  and  _168
REMARK   68  A    between atoms: _168  and  _169
REMARK   69  A    between atoms: _174  and  _176
REMARK   70  A    between atoms: _176  and  _177
REMARK   71  A    between atoms: _176  and  _179
REMARK   72  A    between atoms: _179  and  _180
REMARK   73  A    between atoms: _183  and  _185
REMARK   74  A    between atoms: _185  and  _186
REMARK   75  A    between atoms: _185  and  _188
REMARK   76  A    between atoms: _188  and  _189
REMARK   77  A    between atoms: _192  and  _194
REMARK   78  A    between atoms: _194  and  _195
REMARK   79  A    between atoms: _194  and  _197
REMARK   80  A    between atoms: _197  and  _198
REMARK   81  A    between atoms: _203  and  _205
REMARK   82  A    between atoms: _205  and  _206
REMARK   83  A    between atoms: _205  and  _208
REMARK   84  A    between atoms: _208  and  _209
REMARK   85  A    between atoms: _212  and  _214
REMARK   86  A    between atoms: _214  and  _215
REMARK   87  A    between atoms: _214  and  _217
REMARK   88  A    between atoms: _217  and  _218
REMARK   89  A    between atoms: _223  and  _225
REMARK   90  A    between atoms: _225  and  _226
REMARK   91  A    between atoms: _228  and  _230
REMARK   92  A    between atoms: _230  and  _231
REMARK   93  A    between atoms: _230  and  _233
REMARK   94  A    between atoms: _233  and  _234
REMARK   95  A    between atoms: _238  and  ZN_939
REMARK   96  A    between atoms: _239  and  _241
REMARK   97  A    between atoms: _241  and  _242
REMARK   98  A    between atoms: _241  and  _244
REMARK   99  A    between atoms: _244  and  _245
REMARK  100  A    between atoms: _248  and  _250
REMARK  101  A    between atoms: _250  and  _251
REMARK  102  A    between atoms: _250  and  _253
REMARK  103  A    between atoms: _253  and  _254
REMARK  104  A    between atoms: _264  and  _266
REMARK  105  A    between atoms: _266  and  _267
REMARK  106  A    between atoms: _266  and  _269
REMARK  107  A    between atoms: _269  and  _270
REMARK  108  A    between atoms: _273  and  _275
REMARK  109  A    between atoms: _275  and  _276
REMARK  110  A    between atoms: _275  and  _278
REMARK  111  A    between atoms: _278  and  _279
REMARK  112  A    between atoms: _279  and  _280
REMARK  113  A    between atoms: _279  and  _281
REMARK  114  A    between atoms: _280  and  ZN_939
REMARK  115  A    between atoms: _281  and  ZN_938
REMARK  116  A    between atoms: _283  and  _284
REMARK  117  A    between atoms: _289  and  _291
REMARK  118  A    between atoms: _291  and  _292
REMARK  119  A    between atoms: _295  and  _297
REMARK  120  A    between atoms: _297  and  _298
REMARK  121  A    between atoms: _297  and  _300
REMARK  122  A    between atoms: _300  and  _301
REMARK  123  A    between atoms: _301  and  _302
REMARK  124  A    between atoms: _305  and  _307
REMARK  125  A    between atoms: _307  and  _308
REMARK  126  A    between atoms: _307  and  _310
REMARK  127  A    between atoms: _310  and  _311
REMARK  128  A    between atoms: _311  and  _312
REMARK  129  A    between atoms: _312  and  _314
REMARK  130  A    between atoms: _314  and  ZN_938
REMARK  131  A    between atoms: _315  and  _317
REMARK  132  A    between atoms: _317  and  _318
REMARK  133  A    between atoms: _317  and  _320
REMARK  134  A    between atoms: _320  and  _321
REMARK  135  A    between atoms: _327  and  _329
REMARK  136  A    between atoms: _329  and  _330
REMARK  137  A    between atoms: _332  and  _334
REMARK  138  A    between atoms: _334  and  _335
REMARK  139  A    between atoms: _334  and  _337
REMARK  140  A    between atoms: _337  and  _338
REMARK  141  A    between atoms: _341  and  _343
REMARK  142  A    between atoms: _343  and  _344
REMARK  143  A    between atoms: _343  and  _346
REMARK  144  A    between atoms: _346  and  _347
REMARK  145  A    between atoms: _350  and  _352
REMARK  146  A    between atoms: _352  and  _353
REMARK  147  A    between atoms: _352  and  _355
REMARK  148  A    between atoms: _355  and  _356
REMARK  149  A    between atoms: _361  and  _363
REMARK  150  A    between atoms: _363  and  _364
REMARK  151  A    between atoms: _363  and  _366
REMARK  152  A    between atoms: _366  and  _367
REMARK  153  A    between atoms: _367  and  _369
REMARK  154  A    between atoms: _369  and  ZN_939
REMARK  155  A    between atoms: _370  and  _372
REMARK  156  A    between atoms: _372  and  _373
REMARK  157  A    between atoms: _372  and  _375
REMARK  158  A    between atoms: _375  and  _376
REMARK  159  A    between atoms: _378  and  _380
REMARK  160  A    between atoms: _380  and  _381
REMARK  161  A    between atoms: _380  and  _383
REMARK  162  A    between atoms: _383  and  _384
REMARK  163  A    between atoms: _386  and  _388
REMARK  164  A    between atoms: _388  and  _389
REMARK  165  A    between atoms: _388  and  _391
REMARK  166  A    between atoms: _391  and  _392
REMARK  167  A    between atoms: _395  and  _397
REMARK  168  A    between atoms: _397  and  _398
REMARK  169  A    between atoms: _397  and  _400
REMARK  170  A    between atoms: _400  and  _401
REMARK  171  A    between atoms: _401  and  _402
REMARK  172  A    between atoms: _405  and  _407
REMARK  173  A    between atoms: _407  and  _408
REMARK  174  A    between atoms: _407  and  _410
REMARK  175  A    between atoms: _410  and  _411
REMARK  176  A    between atoms: _416  and  _417
REMARK  177  A    between atoms: _419  and  _421
REMARK  178  A    between atoms: _421  and  _422
REMARK  179  A    between atoms: _421  and  _424
REMARK  180  A    between atoms: _424  and  _425
REMARK  181  A    between atoms: _428  and  _430
REMARK  182  A    between atoms: _430  and  _431
REMARK  183  A    between atoms: _430  and  _433
REMARK  184  A    between atoms: _433  and  _434
REMARK  185  A    between atoms: _437  and  _439
REMARK  186  A    between atoms: _439  and  _440
REMARK  187  A    between atoms: _439  and  _442
REMARK  188  A    between atoms: _442  and  _443
REMARK  189  A    between atoms: _443  and  _444
REMARK  190  A    between atoms: _444  and  _445
REMARK  191  A    between atoms: _454  and  _456
REMARK  192  A    between atoms: _456  and  _457
REMARK  193  A    between atoms: _456  and  _459
REMARK  194  A    between atoms: _462  and  _464
REMARK  195  A    between atoms: _464  and  _465
REMARK  196  A    between atoms: _464  and  _467
REMARK  197  A    between atoms: _467  and  _468
REMARK  198  A    between atoms: _471  and  _473
REMARK  199  A    between atoms: _473  and  _474
REMARK  200  A    between atoms: _473  and  _476
REMARK  201  A    between atoms: _476  and  _477
REMARK  202  A    between atoms: _487  and  _489
REMARK  203  A    between atoms: _489  and  _490
REMARK  204  A    between atoms: _489  and  _492
REMARK  205  A    between atoms: _492  and  _493
REMARK  206  A    between atoms: _493  and  _494
REMARK  207  A    between atoms: _494  and  _495
REMARK  208  A    between atoms: _495  and  _496
REMARK  209  A    between atoms: _500  and  _502
REMARK  210  A    between atoms: _502  and  _503
REMARK  211  A    between atoms: _502  and  _505
REMARK  212  A    between atoms: _505  and  _506
REMARK  213  A    between atoms: _509  and  _510
REMARK  214  A    between atoms: _516  and  _517
REMARK  215  A    between atoms: _522  and  _524
REMARK  216  A    between atoms: _524  and  _525
REMARK  217  A    between atoms: _524  and  _527
REMARK  218  A    between atoms: _527  and  _528
REMARK  219  A    between atoms: _528  and  _529
REMARK  220  A    between atoms: _529  and  _530
REMARK  221  A    between atoms: _539  and  _541
REMARK  222  A    between atoms: _541  and  _542
REMARK  223  A    between atoms: _541  and  _544
REMARK  224  A    between atoms: _544  and  _545
REMARK  225  A    between atoms: _548  and  _550
REMARK  226  A    between atoms: _550  and  _551
REMARK  227  A    between atoms: _550  and  _553
REMARK  228  A    between atoms: _553  and  _554
REMARK  229  A    between atoms: _556  and  _558
REMARK  230  A    between atoms: _558  and  _559
REMARK  231  A    between atoms: _558  and  _561
REMARK  232  A    between atoms: _561  and  _562
REMARK  233  A    between atoms: _562  and  _563
REMARK  234  A    between atoms: _563  and  _564
REMARK  235  A    between atoms: _564  and  _565
REMARK  236  A    between atoms: _569  and  _571
REMARK  237  A    between atoms: _571  and  _572
REMARK  238  A    between atoms: _571  and  _574
REMARK  239  A    between atoms: _574  and  _575
REMARK  240  A    between atoms: _578  and  _580
REMARK  241  A    between atoms: _580  and  _581
REMARK  242  A    between atoms: _583  and  _585
REMARK  243  A    between atoms: _585  and  _586
REMARK  244  A    between atoms: _585  and  _588
REMARK  245  A    between atoms: _588  and  _589
REMARK  246  A    between atoms: _591  and  _593
REMARK  247  A    between atoms: _593  and  _594
REMARK  248  A    between atoms: _596  and  _598
REMARK  249  A    between atoms: _598  and  _599
REMARK  250  A    between atoms: _598  and  _601
REMARK  251  A    between atoms: _601  and  _602
REMARK  252  A    between atoms: _607  and  _609
REMARK  253  A    between atoms: _609  and  _610
REMARK  254  A    between atoms: _609  and  _612
REMARK  255  A    between atoms: _612  and  _613
REMARK  256  A    between atoms: _616  and  _618
REMARK  257  A    between atoms: _618  and  _619
REMARK  258  A    between atoms: _618  and  _621
REMARK  259  A    between atoms: _621  and  _622
REMARK  260  A    between atoms: _628  and  _630
REMARK  261  A    between atoms: _630  and  _631
REMARK  262  A    between atoms: _630  and  _633
REMARK  263  A    between atoms: _633  and  _634
REMARK  264  A    between atoms: _634  and  _635
REMARK  265  A    between atoms: _638  and  _640
REMARK  266  A    between atoms: _640  and  _641
REMARK  267  A    between atoms: _640  and  _643
REMARK  268  A    between atoms: _643  and  _644
REMARK  269  A    between atoms: _644  and  _645
REMARK  270  A    between atoms: _645  and  _646
REMARK  271  A    between atoms: _655  and  _657
REMARK  272  A    between atoms: _657  and  _658
REMARK  273  A    between atoms: _657  and  _660
REMARK  274  A    between atoms: _660  and  _661
REMARK  275  A    between atoms: _661  and  _662
REMARK  276  A    between atoms: _662  and  _663
REMARK  277  A    between atoms: _672  and  _674
REMARK  278  A    between atoms: _674  and  _675
REMARK  279  A    between atoms: _674  and  _677
REMARK  280  A    between atoms: _677  and  _678
REMARK  281  A    between atoms: _683  and  _684
REMARK  282  A    between atoms: _686  and  _688
REMARK  283  A    between atoms: _688  and  _689
REMARK  284  A    between atoms: _688  and  _691
REMARK  285  A    between atoms: _691  and  _692
REMARK  286  A    between atoms: _695  and  _697
REMARK  287  A    between atoms: _697  and  _698
REMARK  288  A    between atoms: _697  and  _700
REMARK  289  A    between atoms: _700  and  _701
REMARK  290  A    between atoms: _701  and  _702
REMARK  291  A    between atoms: _702  and  _703
REMARK  292  A    between atoms: _703  and  _704
REMARK  293  A    between atoms: _708  and  _710
REMARK  294  A    between atoms: _710  and  _711
REMARK  295  A    between atoms: _710  and  _713
REMARK  296  A    between atoms: _713  and  _714
REMARK  297  A    between atoms: _719  and  _721
REMARK  298  A    between atoms: _721  and  _722
REMARK  299  A    between atoms: _721  and  _724
REMARK  300  A    between atoms: _724  and  _725
REMARK  301  A    between atoms: _735  and  _737
REMARK  302  A    between atoms: _737  and  _738
REMARK  303  A    between atoms: _737  and  _740
REMARK  304  A    between atoms: _740  and  _741
REMARK  305  A    between atoms: _741  and  _742
REMARK  306  A    between atoms: _745  and  _747
REMARK  307  A    between atoms: _747  and  _748
REMARK  308  A    between atoms: _747  and  _750
REMARK  309  A    between atoms: _750  and  _751
REMARK  310  A    between atoms: _754  and  _756
REMARK  311  A    between atoms: _756  and  _757
REMARK  312  A    between atoms: _756  and  _759
REMARK  313  A    between atoms: _759  and  _760
REMARK  314  A    between atoms: _765  and  _767
REMARK  315  A    between atoms: _767  and  _768
REMARK  316  A    between atoms: _767  and  _770
REMARK  317  A    between atoms: _770  and  _771
REMARK  318  A    between atoms: _777  and  _779
REMARK  319  A    between atoms: _779  and  _780
REMARK  320  A    between atoms: _779  and  _782
REMARK  321  A    between atoms: _782  and  _783
REMARK  322  A    between atoms: _785  and  _787
REMARK  323  A    between atoms: _787  and  _788
REMARK  324  A    between atoms: _790  and  _792
REMARK  325  A    between atoms: _792  and  _793
REMARK  326  A    between atoms: _792  and  _795
REMARK  327  A    between atoms: _795  and  _796
REMARK  328  A    between atoms: _801  and  _802
REMARK  329  A    between atoms: _804  and  _806
REMARK  330  A    between atoms: _806  and  _807
REMARK  331  A    between atoms: _806  and  _809
REMARK  332  A    between atoms: _809  and  _810
REMARK  333  A    between atoms: _815  and  _816
REMARK  334  A    between atoms: _818  and  _820
REMARK  335  A    between atoms: _820  and  _821
REMARK  336  A    between atoms: _820  and  _823
REMARK  337  A    between atoms: _823  and  _824
REMARK  338  A    between atoms: _828  and  ZN_938
REMARK  339  A    between atoms: _829  and  _831
REMARK  340  A    between atoms: _831  and  _832
REMARK  341  A    between atoms: _831  and  _834
REMARK  342  A    between atoms: _834  and  _835
REMARK  343  A    between atoms: _835  and  _836
REMARK  344  A    between atoms: _839  and  _841
REMARK  345  A    between atoms: _841  and  _842
REMARK  346  A    between atoms: _841  and  _844
REMARK  347  A    between atoms: _844  and  _845
REMARK  348  A    between atoms: _845  and  _846
REMARK  349  A    between atoms: _846  and  _847
REMARK  350  A    between atoms: _856  and  _858
REMARK  351  A    between atoms: _858  and  _859
REMARK  352  A    between atoms: _858  and  _861
REMARK  353  A    between atoms: _861  and  _862
REMARK  354  A    between atoms: _867  and  _868
REMARK  355  A    between atoms: _870  and  _872
REMARK  356  A    between atoms: _872  and  _873
REMARK  357  A    between atoms: _872  and  _875
REMARK  358  A    between atoms: _875  and  _876
REMARK  359  A    between atoms: _878  and  _880
REMARK  360  A    between atoms: _880  and  _881
REMARK  361  A    between atoms: _880  and  _883
REMARK  362  A    between atoms: _883  and  _884
REMARK  363  A    between atoms: _889  and  _891
REMARK  364  A    between atoms: _891  and  _892
REMARK  365  A    between atoms: _891  and  _894
REMARK  366  A    between atoms: _894  and  _895
REMARK  367  A    between atoms: _900  and  _902
REMARK  368  A    between atoms: _902  and  _903
REMARK  369  A    between atoms: _902  and  _905
REMARK  370  A    between atoms: _905  and  _906
REMARK  371  A    between atoms: _906  and  _907
REMARK  372  A    between atoms: _907  and  _908
REMARK  373  A    between atoms: _908  and  _909
REMARK  374  A    between atoms: _913  and  _915
REMARK  375  A    between atoms: _915  and  _916
REMARK  376  A    between atoms: _915  and  _918
REMARK  377  A    between atoms: _918  and  _919
REMARK  378  A    between atoms: _924  and  _925
REMARK  379  A    between atoms: _927  and  _929
REMARK  380  A    between atoms: _929  and  _930
REMARK  381  A    between atoms: _933  and  _935
REMARK  382  A    between atoms: _935  and  _936
REMARK                            x       y       z     vdW  Elec       q    Type
REMARK                         _______ _______ _______ _____ _____    ______ ____
ROOT
ATOM      1  O   HOH     1      26.039  59.993  47.788  0.00  0.00    +0.000 OA
ENDROOT
TORSDOF 0
REMARK  Name = ../refined-set-2016/2xeg/2xeg_pocket.pdb
REMARK  382 active torsions:
REMARK  status: ('A' for Active; 'I' for Inactive)
REMARK    1  A    between atoms: _1  and  _3
REMARK    2  A    between atoms: _3  and  _4
REMARK    3  A    between atoms: _7  and  _9
REMARK    4  A    between atoms: _9  and  _10
REMARK    5  A    between atoms: _9  and  _12
REMARK    6  A    between atoms: _12  and  _13
REMARK    7  A    between atoms: _19  and  _21
REMARK    8  A    between atoms: _21  and  _22
REMARK    9  A    between atoms: _21  and  _24
REMARK   10  A    between atoms: _24  and  _25
REMARK   11  A    between atoms: _30  and  _31
REMARK   12  A    between atoms: _33  and  _35
REMARK   13  A    between atoms: _35  and  _36
REMARK   14  A    between atoms: _38  and  _40
REMARK   15  A    between atoms: _40  and  _41
REMARK   16  A    between atoms: _40  and  _43
REMARK   17  A    between atoms: _43  and  _44
REMARK   18  A    between atoms: _44  and  _45
REMARK   19  A    between atoms: _45  and  _46
REMARK   20  A    between atoms: _46  and  _47
REMARK   21  A    between atoms: _51  and  _53
REMARK   22  A    between atoms: _53  and  _54
REMARK   23  A    between atoms: _53  and  _56
REMARK   24  A    between atoms: _59  and  _61
REMARK   25  A    between atoms: _61  and  _62
REMARK   26  A    between atoms: _61  and  _64
REMARK   27  A    between atoms: _64  and  _65
REMARK   28  A    between atoms: _71  and  _73
REMARK   29  A    between atoms: _73  and  _74
REMARK   30  A    between atoms: _73  and  _76
REMARK   31  A    between atoms: _76  and  _77
REMARK   32  A    between atoms: _77  and  _78
REMARK   33  A    between atoms: _78  and  _79
REMARK   34  A    between atoms: _88  and  _90
REMARK   35  A    between atoms: _90  and  _91
REMARK   36  A    between atoms: _93  and  _95
REMARK   37  A    between atoms: _95  and  _96
REMARK   38  A    between atoms: _95  and  _98
REMARK   39  A    between atoms: _98  and  _99
REMARK   40  A    between atoms: _99  and  _100
REMARK   41  A    between atoms: _100  and  _101
REMARK   42  A    between atoms: _101  and  _102
REMARK   43  A    between atoms: _106  and  _108
REMARK   44  A    between atoms: _108  and  _109
REMARK   45  A    between atoms: _108  and  _111
REMARK   46  A    between atoms: _111  and  _112
REMARK   47  A    between atoms: _115  and  _117
REMARK   48  A    between atoms: _117  and  _118
REMARK   49  A    between atoms: _117  and  _120
REMARK   50  A    between atoms: _120  and  _121
REMARK   51  A    between atoms: _126  and  _127
REMARK   52  A    between atoms: _129  and  _131
REMARK   53  A    between atoms: _131  and  _132
REMARK   54  A    between atoms: _131  and  _134
REMARK   55  A    between atoms: _134  and  _135
REMARK   56  A    between atoms: _135  and  _136
REMARK   57  A    between atoms: _141  and  _143
REMARK   58  A    between atoms: _143  and  _144
REMARK   59  A    between atoms: _143  and  _146
REMARK   60  A    between atoms: _146  and  _147
REMARK   61  A    between atoms: _147  and  _148
REMARK   62  A    between atoms: _148  and  _149
REMARK   63  A    between atoms: _158  and  _160
REMARK   64  A    between atoms: _160  and  _161
REMARK   65  A    between atoms: _163  and  _165
REMARK   66  A    between atoms: _165  and  _166
REMARK   67  A    between atoms: _165  and  _168
REMARK   68  A    between atoms: _168  and  _169
REMARK   69  A    between atoms: _174  and  _176
REMARK   70  A    between atoms: _176  and  _177
REMARK   71  A    between atoms: _176  and  _179
REMARK   72  A    between atoms: _179  and  _180
REMARK   73  A    between atoms: _183  and  _185
REMARK   74  A    between atoms: _185  and  _186
REMARK   75  A    between atoms: _185  and  _188
REMARK   76  A    between atoms: _188  and  _189
REMARK   77  A    between atoms: _192  and  _194
REMARK   78  A    between atoms: _194  and  _195
REMARK   79  A    between atoms: _194  and  _197
REMARK   80  A    between atoms: _197  and  _198
REMARK   81  A    between atoms: _203  and  _205
REMARK   82  A    between atoms: _205  and  _206
REMARK   83  A    between atoms: _205  and  _208
REMARK   84  A    between atoms: _208  and  _209
REMARK   85  A    between atoms: _212  and  _214
REMARK   86  A    between atoms: _214  and  _215
REMARK   87  A    between atoms: _214  and  _217
REMARK   88  A    between atoms: _217  and  _218
REMARK   89  A    between atoms: _223  and  _225
REMARK   90  A    between atoms: _225  and  _226
REMARK   91  A    between atoms: _228  and  _230
REMARK   92  A    between atoms: _230  and  _231
REMARK   93  A    between atoms: _230  and  _233
REMARK   94  A    between atoms: _233  and  _234
REMARK   95  A    between atoms: _238  and  ZN_939
REMARK   96  A    between atoms: _239  and  _241
REMARK   97  A    between atoms: _241  and  _242
REMARK   98  A    between atoms: _241  and  _244
REMARK   99  A    between atoms: _244  and  _245
REMARK  100  A    between atoms: _248  and  _250
REMARK  101  A    between atoms: _250  and  _251
REMARK  102  A    between atoms: _250  and  _253
REMARK  103  A    between atoms: _253  and  _254
REMARK  104  A    between atoms: _264  and  _266
REMARK  105  A    between atoms: _266  and  _267
REMARK  106  A    between atoms: _266  and  _269
REMARK  107  A    between atoms: _269  and  _270
REMARK  108  A    between atoms: _273  and  _275
REMARK  109  A    between atoms: _275  and  _276
REMARK  110  A    between atoms: _275  and  _278
REMARK  111  A    between atoms: _278  and  _279
REMARK  112  A    between atoms: _279  and  _280
REMARK  113  A    between atoms: _279  and  _281
REMARK  114  A    between atoms: _280  and  ZN_939
REMARK  115  A    between atoms: _281  and  ZN_938
REMARK  116  A    between atoms: _283  and  _284
REMARK  117  A    between atoms: _289  and  _291
REMARK  118  A    between atoms: _291  and  _292
REMARK  119  A    between atoms: _295  and  _297
REMARK  120  A    between atoms: _297  and  _298
REMARK  121  A    between atoms: _297  and  _300
REMARK  122  A    between atoms: _300  and  _301
REMARK  123  A    between atoms: _301  and  _302
REMARK  124  A    between atoms: _305  and  _307
REMARK  125  A    between atoms: _307  and  _308
REMARK  126  A    between atoms: _307  and  _310
REMARK  127  A    between atoms: _310  and  _311
REMARK  128  A    between atoms: _311  and  _312
REMARK  129  A    between atoms: _312  and  _314
REMARK  130  A    between atoms: _314  and  ZN_938
REMARK  131  A    between atoms: _315  and  _317
REMARK  132  A    between atoms: _317  and  _318
REMARK  133  A    between atoms: _317  and  _320
REMARK  134  A    between atoms: _320  and  _321
REMARK  135  A    between atoms: _327  and  _329
REMARK  136  A    between atoms: _329  and  _330
REMARK  137  A    between atoms: _332  and  _334
REMARK  138  A    between atoms: _334  and  _335
REMARK  139  A    between atoms: _334  and  _337
REMARK  140  A    between atoms: _337  and  _338
REMARK  141  A    between atoms: _341  and  _343
REMARK  142  A    between atoms: _343  and  _344
REMARK  143  A    between atoms: _343  and  _346
REMARK  144  A    between atoms: _346  and  _347
REMARK  145  A    between atoms: _350  and  _352
REMARK  146  A    between atoms: _352  and  _353
REMARK  147  A    between atoms: _352  and  _355
REMARK  148  A    between atoms: _355  and  _356
REMARK  149  A    between atoms: _361  and  _363
REMARK  150  A    between atoms: _363  and  _364
REMARK  151  A    between atoms: _363  and  _366
REMARK  152  A    between atoms: _366  and  _367
REMARK  153  A    between atoms: _367  and  _369
REMARK  154  A    between atoms: _369  and  ZN_939
REMARK  155  A    between atoms: _370  and  _372
REMARK  156  A    between atoms: _372  and  _373
REMARK  157  A    between atoms: _372  and  _375
REMARK  158  A    between atoms: _375  and  _376
REMARK  159  A    between atoms: _378  and  _380
REMARK  160  A    between atoms: _380  and  _381
REMARK  161  A    between atoms: _380  and  _383
REMARK  162  A    between atoms: _383  and  _384
REMARK  163  A    between atoms: _386  and  _388
REMARK  164  A    between atoms: _388  and  _389
REMARK  165  A    between atoms: _388  and  _391
REMARK  166  A    between atoms: _391  and  _392
REMARK  167  A    between atoms: _395  and  _397
REMARK  168  A    between atoms: _397  and  _398
REMARK  169  A    between atoms: _397  and  _400
REMARK  170  A    between atoms: _400  and  _401
REMARK  171  A    between atoms: _401  and  _402
REMARK  172  A    between atoms: _405  and  _407
REMARK  173  A    between atoms: _407  and  _408
REMARK  174  A    between atoms: _407  and  _410
REMARK  175  A    between atoms: _410  and  _411
REMARK  176  A    between atoms: _416  and  _417
REMARK  177  A    between atoms: _419  and  _421
REMARK  178  A    between atoms: _421  and  _422
REMARK  179  A    between atoms: _421  and  _424
REMARK  180  A    between atoms: _424  and  _425
REMARK  181  A    between atoms: _428  and  _430
REMARK  182  A    between atoms: _430  and  _431
REMARK  183  A    between atoms: _430  and  _433
REMARK  184  A    between atoms: _433  and  _434
REMARK  185  A    between atoms: _437  and  _439
REMARK  186  A    between atoms: _439  and  _440
REMARK  187  A    between atoms: _439  and  _442
REMARK  188  A    between atoms: _442  and  _443
REMARK  189  A    between atoms: _443  and  _444
REMARK  190  A    between atoms: _444  and  _445
REMARK  191  A    between atoms: _454  and  _456
REMARK  192  A    between atoms: _456  and  _457
REMARK  193  A    between atoms: _456  and  _459
REMARK  194  A    between atoms: _462  and  _464
REMARK  195  A    between atoms: _464  and  _465
REMARK  196  A    between atoms: _464  and  _467
REMARK  197  A    between atoms: _467  and  _468
REMARK  198  A    between atoms: _471  and  _473
REMARK  199  A    between atoms: _473  and  _474
REMARK  200  A    between atoms: _473  and  _476
REMARK  201  A    between atoms: _476  and  _477
REMARK  202  A    between atoms: _487  and  _489
REMARK  203  A    between atoms: _489  and  _490
REMARK  204  A    between atoms: _489  and  _492
REMARK  205  A    between atoms: _492  and  _493
REMARK  206  A    between atoms: _493  and  _494
REMARK  207  A    between atoms: _494  and  _495
REMARK  208  A    between atoms: _495  and  _496
REMARK  209  A    between atoms: _500  and  _502
REMARK  210  A    between atoms: _502  and  _503
REMARK  211  A    between atoms: _502  and  _505
REMARK  212  A    between atoms: _505  and  _506
REMARK  213  A    between atoms: _509  and  _510
REMARK  214  A    between atoms: _516  and  _517
REMARK  215  A    between atoms: _522  and  _524
REMARK  216  A    between atoms: _524  and  _525
REMARK  217  A    between atoms: _524  and  _527
REMARK  218  A    between atoms: _527  and  _528
REMARK  219  A    between atoms: _528  and  _529
REMARK  220  A    between atoms: _529  and  _530
REMARK  221  A    between atoms: _539  and  _541
REMARK  222  A    between atoms: _541  and  _542
REMARK  223  A    between atoms: _541  and  _544
REMARK  224  A    between atoms: _544  and  _545
REMARK  225  A    between atoms: _548  and  _550
REMARK  226  A    between atoms: _550  and  _551
REMARK  227  A    between atoms: _550  and  _553
REMARK  228  A    between atoms: _553  and  _554
REMARK  229  A    between atoms: _556  and  _558
REMARK  230  A    between atoms: _558  and  _559
REMARK  231  A    between atoms: _558  and  _561
REMARK  232  A    between atoms: _561  and  _562
REMARK  233  A    between atoms: _562  and  _563
REMARK  234  A    between atoms: _563  and  _564
REMARK  235  A    between atoms: _564  and  _565
REMARK  236  A    between atoms: _569  and  _571
REMARK  237  A    between atoms: _571  and  _572
REMARK  238  A    between atoms: _571  and  _574
REMARK  239  A    between atoms: _574  and  _575
REMARK  240  A    between atoms: _578  and  _580
REMARK  241  A    between atoms: _580  and  _581
REMARK  242  A    between atoms: _583  and  _585
REMARK  243  A    between atoms: _585  and  _586
REMARK  244  A    between atoms: _585  and  _588
REMARK  245  A    between atoms: _588  and  _589
REMARK  246  A    between atoms: _591  and  _593
REMARK  247  A    between atoms: _593  and  _594
REMARK  248  A    between atoms: _596  and  _598
REMARK  249  A    between atoms: _598  and  _599
REMARK  250  A    between atoms: _598  and  _601
REMARK  251  A    between atoms: _601  and  _602
REMARK  252  A    between atoms: _607  and  _609
REMARK  253  A    between atoms: _609  and  _610
REMARK  254  A    between atoms: _609  and  _612
REMARK  255  A    between atoms: _612  and  _613
REMARK  256  A    between atoms: _616  and  _618
REMARK  257  A    between atoms: _618  and  _619
REMARK  258  A    between atoms: _618  and  _621
REMARK  259  A    between atoms: _621  and  _622
REMARK  260  A    between atoms: _628  and  _630
REMARK  261  A    between atoms: _630  and  _631
REMARK  262  A    between atoms: _630  and  _633
REMARK  263  A    between atoms: _633  and  _634
REMARK  264  A    between atoms: _634  and  _635
REMARK  265  A    between atoms: _638  and  _640
REMARK  266  A    between atoms: _640  and  _641
REMARK  267  A    between atoms: _640  and  _643
REMARK  268  A    between atoms: _643  and  _644
REMARK  269  A    between atoms: _644  and  _645
REMARK  270  A    between atoms: _645  and  _646
REMARK  271  A    between atoms: _655  and  _657
REMARK  272  A    between atoms: _657  and  _658
REMARK  273  A    between atoms: _657  and  _660
REMARK  274  A    between atoms: _660  and  _661
REMARK  275  A    between atoms: _661  and  _662
REMARK  276  A    between atoms: _662  and  _663
REMARK  277  A    between atoms: _672  and  _674
REMARK  278  A    between atoms: _674  and  _675
REMARK  279  A    between atoms: _674  and  _677
REMARK  280  A    between atoms: _677  and  _678
REMARK  281  A    between atoms: _683  and  _684
REMARK  282  A    between atoms: _686  and  _688
REMARK  283  A    between atoms: _688  and  _689
REMARK  284  A    between atoms: _688  and  _691
REMARK  285  A    between atoms: _691  and  _692
REMARK  286  A    between atoms: _695  and  _697
REMARK  287  A    between atoms: _697  and  _698
REMARK  288  A    between atoms: _697  and  _700
REMARK  289  A    between atoms: _700  and  _701
REMARK  290  A    between atoms: _701  and  _702
REMARK  291  A    between atoms: _702  and  _703
REMARK  292  A    between atoms: _703  and  _704
REMARK  293  A    between atoms: _708  and  _710
REMARK  294  A    between atoms: _710  and  _711
REMARK  295  A    between atoms: _710  and  _713
REMARK  296  A    between atoms: _713  and  _714
REMARK  297  A    between atoms: _719  and  _721
REMARK  298  A    between atoms: _721  and  _722
REMARK  299  A    between atoms: _721  and  _724
REMARK  300  A    between atoms: _724  and  _725
REMARK  301  A    between atoms: _735  and  _737
REMARK  302  A    between atoms: _737  and  _738
REMARK  303  A    between atoms: _737  and  _740
REMARK  304  A    between atoms: _740  and  _741
REMARK  305  A    between atoms: _741  and  _742
REMARK  306  A    between atoms: _745  and  _747
REMARK  307  A    between atoms: _747  and  _748
REMARK  308  A    between atoms: _747  and  _750
REMARK  309  A    between atoms: _750  and  _751
REMARK  310  A    between atoms: _754  and  _756
REMARK  311  A    between atoms: _756  and  _757
REMARK  312  A    between atoms: _756  and  _759
REMARK  313  A    between atoms: _759  and  _760
REMARK  314  A    between atoms: _765  and  _767
REMARK  315  A    between atoms: _767  and  _768
REMARK  316  A    between atoms: _767  and  _770
REMARK  317  A    between atoms: _770  and  _771
REMARK  318  A    between atoms: _777  and  _779
REMARK  319  A    between atoms: _779  and  _780
REMARK  320  A    between atoms: _779  and  _782
REMARK  321  A    between atoms: _782  and  _783
REMARK  322  A    between atoms: _785  and  _787
REMARK  323  A    between atoms: _787  and  _788
REMARK  324  A    between atoms: _790  and  _792
REMARK  325  A    between atoms: _792  and  _793
REMARK  326  A    between atoms: _792  and  _795
REMARK  327  A    between atoms: _795  and  _796
REMARK  328  A    between atoms: _801  and  _802
REMARK  329  A    between atoms: _804  and  _806
REMARK  330  A    between atoms: _806  and  _807
REMARK  331  A    between atoms: _806  and  _809
REMARK  332  A    between atoms: _809  and  _810
REMARK  333  A    between atoms: _815  and  _816
REMARK  334  A    between atoms: _818  and  _820
REMARK  335  A    between atoms: _820  and  _821
REMARK  336  A    between atoms: _820  and  _823
REMARK  337  A    between atoms: _823  and  _824
REMARK  338  A    between atoms: _828  and  ZN_938
REMARK  339  A    between atoms: _829  and  _831
REMARK  340  A    between atoms: _831  and  _832
REMARK  341  A    between atoms: _831  and  _834
REMARK  342  A    between atoms: _834  and  _835
REMARK  343  A    between atoms: _835  and  _836
REMARK  344  A    between atoms: _839  and  _841
REMARK  345  A    between atoms: _841  and  _842
REMARK  346  A    between atoms: _841  and  _844
REMARK  347  A    between atoms: _844  and  _845
REMARK  348  A    between atoms: _845  and  _846
REMARK  349  A    between atoms: _846  and  _847
REMARK  350  A    between atoms: _856  and  _858
REMARK  351  A    between atoms: _858  and  _859
REMARK  352  A    between atoms: _858  and  _861
REMARK  353  A    between atoms: _861  and  _862
REMARK  354  A    between atoms: _867  and  _868
REMARK  355  A    between atoms: _870  and  _872
REMARK  356  A    between atoms: _872  and  _873
REMARK  357  A    between atoms: _872  and  _875
REMARK  358  A    between atoms: _875  and  _876
REMARK  359  A    between atoms: _878  and  _880
REMARK  360  A    between atoms: _880  and  _881
REMARK  361  A    between atoms: _880  and  _883
REMARK  362  A    between atoms: _883  and  _884
REMARK  363  A    between atoms: _889  and  _891
REMARK  364  A    between atoms: _891  and  _892
REMARK  365  A    between atoms: _891  and  _894
REMARK  366  A    between atoms: _894  and  _895
REMARK  367  A    between atoms: _900  and  _902
REMARK  368  A    between atoms: _902  and  _903
REMARK  369  A    between atoms: _902  and  _905
REMARK  370  A    between atoms: _905  and  _906
REMARK  371  A    between atoms: _906  and  _907
REMARK  372  A    between atoms: _907  and  _908
REMARK  373  A    between atoms: _908  and  _909
REMARK  374  A    between atoms: _913  and  _915
REMARK  375  A    between atoms: _915  and  _916
REMARK  376  A    between atoms: _915  and  _918
REMARK  377  A    between atoms: _918  and  _919
REMARK  378  A    between atoms: _924  and  _925
REMARK  379  A    between atoms: _927  and  _929
REMARK  380  A    between atoms: _929  and  _930
REMARK  381  A    between atoms: _933  and  _935
REMARK  382  A    between atoms: _935  and  _936
REMARK                            x       y       z     vdW  Elec       q    Type
REMARK                         _______ _______ _______ _____ _____    ______ ____
ROOT
ATOM      1  O   HOH     1      19.687  49.317  45.021  0.00  0.00    +0.000 OA
ENDROOT
TORSDOF 0
REMARK  Name = ../refined-set-2016/2xeg/2xeg_pocket.pdb
REMARK  382 active torsions:
REMARK  status: ('A' for Active; 'I' for Inactive)
REMARK    1  A    between atoms: _1  and  _3
REMARK    2  A    between atoms: _3  and  _4
REMARK    3  A    between atoms: _7  and  _9
REMARK    4  A    between atoms: _9  and  _10
REMARK    5  A    between atoms: _9  and  _12
REMARK    6  A    between atoms: _12  and  _13
REMARK    7  A    between atoms: _19  and  _21
REMARK    8  A    between atoms: _21  and  _22
REMARK    9  A    between atoms: _21  and  _24
REMARK   10  A    between atoms: _24  and  _25
REMARK   11  A    between atoms: _30  and  _31
REMARK   12  A    between atoms: _33  and  _35
REMARK   13  A    between atoms: _35  and  _36
REMARK   14  A    between atoms: _38  and  _40
REMARK   15  A    between atoms: _40  and  _41
REMARK   16  A    between atoms: _40  and  _43
REMARK   17  A    between atoms: _43  and  _44
REMARK   18  A    between atoms: _44  and  _45
REMARK   19  A    between atoms: _45  and  _46
REMARK   20  A    between atoms: _46  and  _47
REMARK   21  A    between atoms: _51  and  _53
REMARK   22  A    between atoms: _53  and  _54
REMARK   23  A    between atoms: _53  and  _56
REMARK   24  A    between atoms: _59  and  _61
REMARK   25  A    between atoms: _61  and  _62
REMARK   26  A    between atoms: _61  and  _64
REMARK   27  A    between atoms: _64  and  _65
REMARK   28  A    between atoms: _71  and  _73
REMARK   29  A    between atoms: _73  and  _74
REMARK   30  A    between atoms: _73  and  _76
REMARK   31  A    between atoms: _76  and  _77
REMARK   32  A    between atoms: _77  and  _78
REMARK   33  A    between atoms: _78  and  _79
REMARK   34  A    between atoms: _88  and  _90
REMARK   35  A    between atoms: _90  and  _91
REMARK   36  A    between atoms: _93  and  _95
REMARK   37  A    between atoms: _95  and  _96
REMARK   38  A    between atoms: _95  and  _98
REMARK   39  A    between atoms: _98  and  _99
REMARK   40  A    between atoms: _99  and  _100
REMARK   41  A    between atoms: _100  and  _101
REMARK   42  A    between atoms: _101  and  _102
REMARK   43  A    between atoms: _106  and  _108
REMARK   44  A    between atoms: _108  and  _109
REMARK   45  A    between atoms: _108  and  _111
REMARK   46  A    between atoms: _111  and  _112
REMARK   47  A    between atoms: _115  and  _117
REMARK   48  A    between atoms: _117  and  _118
REMARK   49  A    between atoms: _117  and  _120
REMARK   50  A    between atoms: _120  and  _121
REMARK   51  A    between atoms: _126  and  _127
REMARK   52  A    between atoms: _129  and  _131
REMARK   53  A    between atoms: _131  and  _132
REMARK   54  A    between atoms: _131  and  _134
REMARK   55  A    between atoms: _134  and  _135
REMARK   56  A    between atoms: _135  and  _136
REMARK   57  A    between atoms: _141  and  _143
REMARK   58  A    between atoms: _143  and  _144
REMARK   59  A    between atoms: _143  and  _146
REMARK   60  A    between atoms: _146  and  _147
REMARK   61  A    between atoms: _147  and  _148
REMARK   62  A    between atoms: _148  and  _149
REMARK   63  A    between atoms: _158  and  _160
REMARK   64  A    between atoms: _160  and  _161
REMARK   65  A    between atoms: _163  and  _165
REMARK   66  A    between atoms: _165  and  _166
REMARK   67  A    between atoms: _165  and  _168
REMARK   68  A    between atoms: _168  and  _169
REMARK   69  A    between atoms: _174  and  _176
REMARK   70  A    between atoms: _176  and  _177
REMARK   71  A    between atoms: _176  and  _179
REMARK   72  A    between atoms: _179  and  _180
REMARK   73  A    between atoms: _183  and  _185
REMARK   74  A    between atoms: _185  and  _186
REMARK   75  A    between atoms: _185  and  _188
REMARK   76  A    between atoms: _188  and  _189
REMARK   77  A    between atoms: _192  and  _194
REMARK   78  A    between atoms: _194  and  _195
REMARK   79  A    between atoms: _194  and  _197
REMARK   80  A    between atoms: _197  and  _198
REMARK   81  A    between atoms: _203  and  _205
REMARK   82  A    between atoms: _205  and  _206
REMARK   83  A    between atoms: _205  and  _208
REMARK   84  A    between atoms: _208  and  _209
REMARK   85  A    between atoms: _212  and  _214
REMARK   86  A    between atoms: _214  and  _215
REMARK   87  A    between atoms: _214  and  _217
REMARK   88  A    between atoms: _217  and  _218
REMARK   89  A    between atoms: _223  and  _225
REMARK   90  A    between atoms: _225  and  _226
REMARK   91  A    between atoms: _228  and  _230
REMARK   92  A    between atoms: _230  and  _231
REMARK   93  A    between atoms: _230  and  _233
REMARK   94  A    between atoms: _233  and  _234
REMARK   95  A    between atoms: _238  and  ZN_939
REMARK   96  A    between atoms: _239  and  _241
REMARK   97  A    between atoms: _241  and  _242
REMARK   98  A    between atoms: _241  and  _244
REMARK   99  A    between atoms: _244  and  _245
REMARK  100  A    between atoms: _248  and  _250
REMARK  101  A    between atoms: _250  and  _251
REMARK  102  A    between atoms: _250  and  _253
REMARK  103  A    between atoms: _253  and  _254
REMARK  104  A    between atoms: _264  and  _266
REMARK  105  A    between atoms: _266  and  _267
REMARK  106  A    between atoms: _266  and  _269
REMARK  107  A    between atoms: _269  and  _270
REMARK  108  A    between atoms: _273  and  _275
REMARK  109  A    between atoms: _275  and  _276
REMARK  110  A    between atoms: _275  and  _278
REMARK  111  A    between atoms: _278  and  _279
REMARK  112  A    between atoms: _279  and  _280
REMARK  113  A    between atoms: _279  and  _281
REMARK  114  A    between atoms: _280  and  ZN_939
REMARK  115  A    between atoms: _281  and  ZN_938
REMARK  116  A    between atoms: _283  and  _284
REMARK  117  A    between atoms: _289  and  _291
REMARK  118  A    between atoms: _291  and  _292
REMARK  119  A    between atoms: _295  and  _297
REMARK  120  A    between atoms: _297  and  _298
REMARK  121  A    between atoms: _297  and  _300
REMARK  122  A    between atoms: _300  and  _301
REMARK  123  A    between atoms: _301  and  _302
REMARK  124  A    between atoms: _305  and  _307
REMARK  125  A    between atoms: _307  and  _308
REMARK  126  A    between atoms: _307  and  _310
REMARK  127  A    between atoms: _310  and  _311
REMARK  128  A    between atoms: _311  and  _312
REMARK  129  A    between atoms: _312  and  _314
REMARK  130  A    between atoms: _314  and  ZN_938
REMARK  131  A    between atoms: _315  and  _317
REMARK  132  A    between atoms: _317  and  _318
REMARK  133  A    between atoms: _317  and  _320
REMARK  134  A    between atoms: _320  and  _321
REMARK  135  A    between atoms: _327  and  _329
REMARK  136  A    between atoms: _329  and  _330
REMARK  137  A    between atoms: _332  and  _334
REMARK  138  A    between atoms: _334  and  _335
REMARK  139  A    between atoms: _334  and  _337
REMARK  140  A    between atoms: _337  and  _338
REMARK  141  A    between atoms: _341  and  _343
REMARK  142  A    between atoms: _343  and  _344
REMARK  143  A    between atoms: _343  and  _346
REMARK  144  A    between atoms: _346  and  _347
REMARK  145  A    between atoms: _350  and  _352
REMARK  146  A    between atoms: _352  and  _353
REMARK  147  A    between atoms: _352  and  _355
REMARK  148  A    between atoms: _355  and  _356
REMARK  149  A    between atoms: _361  and  _363
REMARK  150  A    between atoms: _363  and  _364
REMARK  151  A    between atoms: _363  and  _366
REMARK  152  A    between atoms: _366  and  _367
REMARK  153  A    between atoms: _367  and  _369
REMARK  154  A    between atoms: _369  and  ZN_939
REMARK  155  A    between atoms: _370  and  _372
REMARK  156  A    between atoms: _372  and  _373
REMARK  157  A    between atoms: _372  and  _375
REMARK  158  A    between atoms: _375  and  _376
REMARK  159  A    between atoms: _378  and  _380
REMARK  160  A    between atoms: _380  and  _381
REMARK  161  A    between atoms: _380  and  _383
REMARK  162  A    between atoms: _383  and  _384
REMARK  163  A    between atoms: _386  and  _388
REMARK  164  A    between atoms: _388  and  _389
REMARK  165  A    between atoms: _388  and  _391
REMARK  166  A    between atoms: _391  and  _392
REMARK  167  A    between atoms: _395  and  _397
REMARK  168  A    between atoms: _397  and  _398
REMARK  169  A    between atoms: _397  and  _400
REMARK  170  A    between atoms: _400  and  _401
REMARK  171  A    between atoms: _401  and  _402
REMARK  172  A    between atoms: _405  and  _407
REMARK  173  A    between atoms: _407  and  _408
REMARK  174  A    between atoms: _407  and  _410
REMARK  175  A    between atoms: _410  and  _411
REMARK  176  A    between atoms: _416  and  _417
REMARK  177  A    between atoms: _419  and  _421
REMARK  178  A    between atoms: _421  and  _422
REMARK  179  A    between atoms: _421  and  _424
REMARK  180  A    between atoms: _424  and  _425
REMARK  181  A    between atoms: _428  and  _430
REMARK  182  A    between atoms: _430  and  _431
REMARK  183  A    between atoms: _430  and  _433
REMARK  184  A    between atoms: _433  and  _434
REMARK  185  A    between atoms: _437  and  _439
REMARK  186  A    between atoms: _439  and  _440
REMARK  187  A    between atoms: _439  and  _442
REMARK  188  A    between atoms: _442  and  _443
REMARK  189  A    between atoms: _443  and  _444
REMARK  190  A    between atoms: _444  and  _445
REMARK  191  A    between atoms: _454  and  _456
REMARK  192  A    between atoms: _456  and  _457
REMARK  193  A    between atoms: _456  and  _459
REMARK  194  A    between atoms: _462  and  _464
REMARK  195  A    between atoms: _464  and  _465
REMARK  196  A    between atoms: _464  and  _467
REMARK  197  A    between atoms: _467  and  _468
REMARK  198  A    between atoms: _471  and  _473
REMARK  199  A    between atoms: _473  and  _474
REMARK  200  A    between atoms: _473  and  _476
REMARK  201  A    between atoms: _476  and  _477
REMARK  202  A    between atoms: _487  and  _489
REMARK  203  A    between atoms: _489  and  _490
REMARK  204  A    between atoms: _489  and  _492
REMARK  205  A    between atoms: _492  and  _493
REMARK  206  A    between atoms: _493  and  _494
REMARK  207  A    between atoms: _494  and  _495
REMARK  208  A    between atoms: _495  and  _496
REMARK  209  A    between atoms: _500  and  _502
REMARK  210  A    between atoms: _502  and  _503
REMARK  211  A    between atoms: _502  and  _505
REMARK  212  A    between atoms: _505  and  _506
REMARK  213  A    between atoms: _509  and  _510
REMARK  214  A    between atoms: _516  and  _517
REMARK  215  A    between atoms: _522  and  _524
REMARK  216  A    between atoms: _524  and  _525
REMARK  217  A    between atoms: _524  and  _527
REMARK  218  A    between atoms: _527  and  _528
REMARK  219  A    between atoms: _528  and  _529
REMARK  220  A    between atoms: _529  and  _530
REMARK  221  A    between atoms: _539  and  _541
REMARK  222  A    between atoms: _541  and  _542
REMARK  223  A    between atoms: _541  and  _544
REMARK  224  A    between atoms: _544  and  _545
REMARK  225  A    between atoms: _548  and  _550
REMARK  226  A    between atoms: _550  and  _551
REMARK  227  A    between atoms: _550  and  _553
REMARK  228  A    between atoms: _553  and  _554
REMARK  229  A    between atoms: _556  and  _558
REMARK  230  A    between atoms: _558  and  _559
REMARK  231  A    between atoms: _558  and  _561
REMARK  232  A    between atoms: _561  and  _562
REMARK  233  A    between atoms: _562  and  _563
REMARK  234  A    between atoms: _563  and  _564
REMARK  235  A    between atoms: _564  and  _565
REMARK  236  A    between atoms: _569  and  _571
REMARK  237  A    between atoms: _571  and  _572
REMARK  238  A    between atoms: _571  and  _574
REMARK  239  A    between atoms: _574  and  _575
REMARK  240  A    between atoms: _578  and  _580
REMARK  241  A    between atoms: _580  and  _581
REMARK  242  A    between atoms: _583  and  _585
REMARK  243  A    between atoms: _585  and  _586
REMARK  244  A    between atoms: _585  and  _588
REMARK  245  A    between atoms: _588  and  _589
REMARK  246  A    between atoms: _591  and  _593
REMARK  247  A    between atoms: _593  and  _594
REMARK  248  A    between atoms: _596  and  _598
REMARK  249  A    between atoms: _598  and  _599
REMARK  250  A    between atoms: _598  and  _601
REMARK  251  A    between atoms: _601  and  _602
REMARK  252  A    between atoms: _607  and  _609
REMARK  253  A    between atoms: _609  and  _610
REMARK  254  A    between atoms: _609  and  _612
REMARK  255  A    between atoms: _612  and  _613
REMARK  256  A    between atoms: _616  and  _618
REMARK  257  A    between atoms: _618  and  _619
REMARK  258  A    between atoms: _618  and  _621
REMARK  259  A    between atoms: _621  and  _622
REMARK  260  A    between atoms: _628  and  _630
REMARK  261  A    between atoms: _630  and  _631
REMARK  262  A    between atoms: _630  and  _633
REMARK  263  A    between atoms: _633  and  _634
REMARK  264  A    between atoms: _634  and  _635
REMARK  265  A    between atoms: _638  and  _640
REMARK  266  A    between atoms: _640  and  _641
REMARK  267  A    between atoms: _640  and  _643
REMARK  268  A    between atoms: _643  and  _644
REMARK  269  A    between atoms: _644  and  _645
REMARK  270  A    between atoms: _645  and  _646
REMARK  271  A    between atoms: _655  and  _657
REMARK  272  A    between atoms: _657  and  _658
REMARK  273  A    between atoms: _657  and  _660
REMARK  274  A    between atoms: _660  and  _661
REMARK  275  A    between atoms: _661  and  _662
REMARK  276  A    between atoms: _662  and  _663
REMARK  277  A    between atoms: _672  and  _674
REMARK  278  A    between atoms: _674  and  _675
REMARK  279  A    between atoms: _674  and  _677
REMARK  280  A    between atoms: _677  and  _678
REMARK  281  A    between atoms: _683  and  _684
REMARK  282  A    between atoms: _686  and  _688
REMARK  283  A    between atoms: _688  and  _689
REMARK  284  A    between atoms: _688  and  _691
REMARK  285  A    between atoms: _691  and  _692
REMARK  286  A    between atoms: _695  and  _697
REMARK  287  A    between atoms: _697  and  _698
REMARK  288  A    between atoms: _697  and  _700
REMARK  289  A    between atoms: _700  and  _701
REMARK  290  A    between atoms: _701  and  _702
REMARK  291  A    between atoms: _702  and  _703
REMARK  292  A    between atoms: _703  and  _704
REMARK  293  A    between atoms: _708  and  _710
REMARK  294  A    between atoms: _710  and  _711
REMARK  295  A    between atoms: _710  and  _713
REMARK  296  A    between atoms: _713  and  _714
REMARK  297  A    between atoms: _719  and  _721
REMARK  298  A    between atoms: _721  and  _722
REMARK  299  A    between atoms: _721  and  _724
REMARK  300  A    between atoms: _724  and  _725
REMARK  301  A    between atoms: _735  and  _737
REMARK  302  A    between atoms: _737  and  _738
REMARK  303  A    between atoms: _737  and  _740
REMARK  304  A    between atoms: _740  and  _741
REMARK  305  A    between atoms: _741  and  _742
REMARK  306  A    between atoms: _745  and  _747
REMARK  307  A    between atoms: _747  and  _748
REMARK  308  A    between atoms: _747  and  _750
REMARK  309  A    between atoms: _750  and  _751
REMARK  310  A    between atoms: _754  and  _756
REMARK  311  A    between atoms: _756  and  _757
REMARK  312  A    between atoms: _756  and  _759
REMARK  313  A    between atoms: _759  and  _760
REMARK  314  A    between atoms: _765  and  _767
REMARK  315  A    between atoms: _767  and  _768
REMARK  316  A    between atoms: _767  and  _770
REMARK  317  A    between atoms: _770  and  _771
REMARK  318  A    between atoms: _777  and  _779
REMARK  319  A    between atoms: _779  and  _780
REMARK  320  A    between atoms: _779  and  _782
REMARK  321  A    between atoms: _782  and  _783
REMARK  322  A    between atoms: _785  and  _787
REMARK  323  A    between atoms: _787  and  _788
REMARK  324  A    between atoms: _790  and  _792
REMARK  325  A    between atoms: _792  and  _793
REMARK  326  A    between atoms: _792  and  _795
REMARK  327  A    between atoms: _795  and  _796
REMARK  328  A    between atoms: _801  and  _802
REMARK  329  A    between atoms: _804  and  _806
REMARK  330  A    between atoms: _806  and  _807
REMARK  331  A    between atoms: _806  and  _809
REMARK  332  A    between atoms: _809  and  _810
REMARK  333  A    between atoms: _815  and  _816
REMARK  334  A    between atoms: _818  and  _820
REMARK  335  A    between atoms: _820  and  _821
REMARK  336  A    between atoms: _820  and  _823
REMARK  337  A    between atoms: _823  and  _824
REMARK  338  A    between atoms: _828  and  ZN_938
REMARK  339  A    between atoms: _829  and  _831
REMARK  340  A    between atoms: _831  and  _832
REMARK  341  A    between atoms: _831  and  _834
REMARK  342  A    between atoms: _834  and  _835
REMARK  343  A    between atoms: _835  and  _836
REMARK  344  A    between atoms: _839  and  _841
REMARK  345  A    between atoms: _841  and  _842
REMARK  346  A    between atoms: _841  and  _844
REMARK  347  A    between atoms: _844  and  _845
REMARK  348  A    between atoms: _845  and  _846
REMARK  349  A    between atoms: _846  and  _847
REMARK  350  A    between atoms: _856  and  _858
REMARK  351  A    between atoms: _858  and  _859
REMARK  352  A    between atoms: _858  and  _861
REMARK  353  A    between atoms: _861  and  _862
REMARK  354  A    between atoms: _867  and  _868
REMARK  355  A    between atoms: _870  and  _872
REMARK  356  A    between atoms: _872  and  _873
REMARK  357  A    between atoms: _872  and  _875
REMARK  358  A    between atoms: _875  and  _876
REMARK  359  A    between atoms: _878  and  _880
REMARK  360  A    between atoms: _880  and  _881
REMARK  361  A    between atoms: _880  and  _883
REMARK  362  A    between atoms: _883  and  _884
REMARK  363  A    between atoms: _889  and  _891
REMARK  364  A    between atoms: _891  and  _892
REMARK  365  A    between atoms: _891  and  _894
REMARK  366  A    between atoms: _894  and  _895
REMARK  367  A    between atoms: _900  and  _902
REMARK  368  A    between atoms: _902  and  _903
REMARK  369  A    between atoms: _902  and  _905
REMARK  370  A    between atoms: _905  and  _906
REMARK  371  A    between atoms: _906  and  _907
REMARK  372  A    between atoms: _907  and  _908
REMARK  373  A    between atoms: _908  and  _909
REMARK  374  A    between atoms: _913  and  _915
REMARK  375  A    between atoms: _915  and  _916
REMARK  376  A    between atoms: _915  and  _918
REMARK  377  A    between atoms: _918  and  _919
REMARK  378  A    between atoms: _924  and  _925
REMARK  379  A    between atoms: _927  and  _929
REMARK  380  A    between atoms: _929  and  _930
REMARK  381  A    between atoms: _933  and  _935
REMARK  382  A    between atoms: _935  and  _936
REMARK                            x       y       z     vdW  Elec       q    Type
REMARK                         _______ _______ _______ _____ _____    ______ ____
ROOT
ATOM      1  O   HOH     1      13.543  44.626  49.909  0.00  0.00    +0.000 OA
ENDROOT
TORSDOF 0
REMARK  Name = ../refined-set-2016/2xeg/2xeg_pocket.pdb
REMARK  382 active torsions:
REMARK  status: ('A' for Active; 'I' for Inactive)
REMARK    1  A    between atoms: _1  and  _3
REMARK    2  A    between atoms: _3  and  _4
REMARK    3  A    between atoms: _7  and  _9
REMARK    4  A    between atoms: _9  and  _10
REMARK    5  A    between atoms: _9  and  _12
REMARK    6  A    between atoms: _12  and  _13
REMARK    7  A    between atoms: _19  and  _21
REMARK    8  A    between atoms: _21  and  _22
REMARK    9  A    between atoms: _21  and  _24
REMARK   10  A    between atoms: _24  and  _25
REMARK   11  A    between atoms: _30  and  _31
REMARK   12  A    between atoms: _33  and  _35
REMARK   13  A    between atoms: _35  and  _36
REMARK   14  A    between atoms: _38  and  _40
REMARK   15  A    between atoms: _40  and  _41
REMARK   16  A    between atoms: _40  and  _43
REMARK   17  A    between atoms: _43  and  _44
REMARK   18  A    between atoms: _44  and  _45
REMARK   19  A    between atoms: _45  and  _46
REMARK   20  A    between atoms: _46  and  _47
REMARK   21  A    between atoms: _51  and  _53
REMARK   22  A    between atoms: _53  and  _54
REMARK   23  A    between atoms: _53  and  _56
REMARK   24  A    between atoms: _59  and  _61
REMARK   25  A    between atoms: _61  and  _62
REMARK   26  A    between atoms: _61  and  _64
REMARK   27  A    between atoms: _64  and  _65
REMARK   28  A    between atoms: _71  and  _73
REMARK   29  A    between atoms: _73  and  _74
REMARK   30  A    between atoms: _73  and  _76
REMARK   31  A    between atoms: _76  and  _77
REMARK   32  A    between atoms: _77  and  _78
REMARK   33  A    between atoms: _78  and  _79
REMARK   34  A    between atoms: _88  and  _90
REMARK   35  A    between atoms: _90  and  _91
REMARK   36  A    between atoms: _93  and  _95
REMARK   37  A    between atoms: _95  and  _96
REMARK   38  A    between atoms: _95  and  _98
REMARK   39  A    between atoms: _98  and  _99
REMARK   40  A    between atoms: _99  and  _100
REMARK   41  A    between atoms: _100  and  _101
REMARK   42  A    between atoms: _101  and  _102
REMARK   43  A    between atoms: _106  and  _108
REMARK   44  A    between atoms: _108  and  _109
REMARK   45  A    between atoms: _108  and  _111
REMARK   46  A    between atoms: _111  and  _112
REMARK   47  A    between atoms: _115  and  _117
REMARK   48  A    between atoms: _117  and  _118
REMARK   49  A    between atoms: _117  and  _120
REMARK   50  A    between atoms: _120  and  _121
REMARK   51  A    between atoms: _126  and  _127
REMARK   52  A    between atoms: _129  and  _131
REMARK   53  A    between atoms: _131  and  _132
REMARK   54  A    between atoms: _131  and  _134
REMARK   55  A    between atoms: _134  and  _135
REMARK   56  A    between atoms: _135  and  _136
REMARK   57  A    between atoms: _141  and  _143
REMARK   58  A    between atoms: _143  and  _144
REMARK   59  A    between atoms: _143  and  _146
REMARK   60  A    between atoms: _146  and  _147
REMARK   61  A    between atoms: _147  and  _148
REMARK   62  A    between atoms: _148  and  _149
REMARK   63  A    between atoms: _158  and  _160
REMARK   64  A    between atoms: _160  and  _161
REMARK   65  A    between atoms: _163  and  _165
REMARK   66  A    between atoms: _165  and  _166
REMARK   67  A    between atoms: _165  and  _168
REMARK   68  A    between atoms: _168  and  _169
REMARK   69  A    between atoms: _174  and  _176
REMARK   70  A    between atoms: _176  and  _177
REMARK   71  A    between atoms: _176  and  _179
REMARK   72  A    between atoms: _179  and  _180
REMARK   73  A    between atoms: _183  and  _185
REMARK   74  A    between atoms: _185  and  _186
REMARK   75  A    between atoms: _185  and  _188
REMARK   76  A    between atoms: _188  and  _189
REMARK   77  A    between atoms: _192  and  _194
REMARK   78  A    between atoms: _194  and  _195
REMARK   79  A    between atoms: _194  and  _197
REMARK   80  A    between atoms: _197  and  _198
REMARK   81  A    between atoms: _203  and  _205
REMARK   82  A    between atoms: _205  and  _206
REMARK   83  A    between atoms: _205  and  _208
REMARK   84  A    between atoms: _208  and  _209
REMARK   85  A    between atoms: _212  and  _214
REMARK   86  A    between atoms: _214  and  _215
REMARK   87  A    between atoms: _214  and  _217
REMARK   88  A    between atoms: _217  and  _218
REMARK   89  A    between atoms: _223  and  _225
REMARK   90  A    between atoms: _225  and  _226
REMARK   91  A    between atoms: _228  and  _230
REMARK   92  A    between atoms: _230  and  _231
REMARK   93  A    between atoms: _230  and  _233
REMARK   94  A    between atoms: _233  and  _234
REMARK   95  A    between atoms: _238  and  ZN_939
REMARK   96  A    between atoms: _239  and  _241
REMARK   97  A    between atoms: _241  and  _242
REMARK   98  A    between atoms: _241  and  _244
REMARK   99  A    between atoms: _244  and  _245
REMARK  100  A    between atoms: _248  and  _250
REMARK  101  A    between atoms: _250  and  _251
REMARK  102  A    between atoms: _250  and  _253
REMARK  103  A    between atoms: _253  and  _254
REMARK  104  A    between atoms: _264  and  _266
REMARK  105  A    between atoms: _266  and  _267
REMARK  106  A    between atoms: _266  and  _269
REMARK  107  A    between atoms: _269  and  _270
REMARK  108  A    between atoms: _273  and  _275
REMARK  109  A    between atoms: _275  and  _276
REMARK  110  A    between atoms: _275  and  _278
REMARK  111  A    between atoms: _278  and  _279
REMARK  112  A    between atoms: _279  and  _280
REMARK  113  A    between atoms: _279  and  _281
REMARK  114  A    between atoms: _280  and  ZN_939
REMARK  115  A    between atoms: _281  and  ZN_938
REMARK  116  A    between atoms: _283  and  _284
REMARK  117  A    between atoms: _289  and  _291
REMARK  118  A    between atoms: _291  and  _292
REMARK  119  A    between atoms: _295  and  _297
REMARK  120  A    between atoms: _297  and  _298
REMARK  121  A    between atoms: _297  and  _300
REMARK  122  A    between atoms: _300  and  _301
REMARK  123  A    between atoms: _301  and  _302
REMARK  124  A    between atoms: _305  and  _307
REMARK  125  A    between atoms: _307  and  _308
REMARK  126  A    between atoms: _307  and  _310
REMARK  127  A    between atoms: _310  and  _311
REMARK  128  A    between atoms: _311  and  _312
REMARK  129  A    between atoms: _312  and  _314
REMARK  130  A    between atoms: _314  and  ZN_938
REMARK  131  A    between atoms: _315  and  _317
REMARK  132  A    between atoms: _317  and  _318
REMARK  133  A    between atoms: _317  and  _320
REMARK  134  A    between atoms: _320  and  _321
REMARK  135  A    between atoms: _327  and  _329
REMARK  136  A    between atoms: _329  and  _330
REMARK  137  A    between atoms: _332  and  _334
REMARK  138  A    between atoms: _334  and  _335
REMARK  139  A    between atoms: _334  and  _337
REMARK  140  A    between atoms: _337  and  _338
REMARK  141  A    between atoms: _341  and  _343
REMARK  142  A    between atoms: _343  and  _344
REMARK  143  A    between atoms: _343  and  _346
REMARK  144  A    between atoms: _346  and  _347
REMARK  145  A    between atoms: _350  and  _352
REMARK  146  A    between atoms: _352  and  _353
REMARK  147  A    between atoms: _352  and  _355
REMARK  148  A    between atoms: _355  and  _356
REMARK  149  A    between atoms: _361  and  _363
REMARK  150  A    between atoms: _363  and  _364
REMARK  151  A    between atoms: _363  and  _366
REMARK  152  A    between atoms: _366  and  _367
REMARK  153  A    between atoms: _367  and  _369
REMARK  154  A    between atoms: _369  and  ZN_939
REMARK  155  A    between atoms: _370  and  _372
REMARK  156  A    between atoms: _372  and  _373
REMARK  157  A    between atoms: _372  and  _375
REMARK  158  A    between atoms: _375  and  _376
REMARK  159  A    between atoms: _378  and  _380
REMARK  160  A    between atoms: _380  and  _381
REMARK  161  A    between atoms: _380  and  _383
REMARK  162  A    between atoms: _383  and  _384
REMARK  163  A    between atoms: _386  and  _388
REMARK  164  A    between atoms: _388  and  _389
REMARK  165  A    between atoms: _388  and  _391
REMARK  166  A    between atoms: _391  and  _392
REMARK  167  A    between atoms: _395  and  _397
REMARK  168  A    between atoms: _397  and  _398
REMARK  169  A    between atoms: _397  and  _400
REMARK  170  A    between atoms: _400  and  _401
REMARK  171  A    between atoms: _401  and  _402
REMARK  172  A    between atoms: _405  and  _407
REMARK  173  A    between atoms: _407  and  _408
REMARK  174  A    between atoms: _407  and  _410
REMARK  175  A    between atoms: _410  and  _411
REMARK  176  A    between atoms: _416  and  _417
REMARK  177  A    between atoms: _419  and  _421
REMARK  178  A    between atoms: _421  and  _422
REMARK  179  A    between atoms: _421  and  _424
REMARK  180  A    between atoms: _424  and  _425
REMARK  181  A    between atoms: _428  and  _430
REMARK  182  A    between atoms: _430  and  _431
REMARK  183  A    between atoms: _430  and  _433
REMARK  184  A    between atoms: _433  and  _434
REMARK  185  A    between atoms: _437  and  _439
REMARK  186  A    between atoms: _439  and  _440
REMARK  187  A    between atoms: _439  and  _442
REMARK  188  A    between atoms: _442  and  _443
REMARK  189  A    between atoms: _443  and  _444
REMARK  190  A    between atoms: _444  and  _445
REMARK  191  A    between atoms: _454  and  _456
REMARK  192  A    between atoms: _456  and  _457
REMARK  193  A    between atoms: _456  and  _459
REMARK  194  A    between atoms: _462  and  _464
REMARK  195  A    between atoms: _464  and  _465
REMARK  196  A    between atoms: _464  and  _467
REMARK  197  A    between atoms: _467  and  _468
REMARK  198  A    between atoms: _471  and  _473
REMARK  199  A    between atoms: _473  and  _474
REMARK  200  A    between atoms: _473  and  _476
REMARK  201  A    between atoms: _476  and  _477
REMARK  202  A    between atoms: _487  and  _489
REMARK  203  A    between atoms: _489  and  _490
REMARK  204  A    between atoms: _489  and  _492
REMARK  205  A    between atoms: _492  and  _493
REMARK  206  A    between atoms: _493  and  _494
REMARK  207  A    between atoms: _494  and  _495
REMARK  208  A    between atoms: _495  and  _496
REMARK  209  A    between atoms: _500  and  _502
REMARK  210  A    between atoms: _502  and  _503
REMARK  211  A    between atoms: _502  and  _505
REMARK  212  A    between atoms: _505  and  _506
REMARK  213  A    between atoms: _509  and  _510
REMARK  214  A    between atoms: _516  and  _517
REMARK  215  A    between atoms: _522  and  _524
REMARK  216  A    between atoms: _524  and  _525
REMARK  217  A    between atoms: _524  and  _527
REMARK  218  A    between atoms: _527  and  _528
REMARK  219  A    between atoms: _528  and  _529
REMARK  220  A    between atoms: _529  and  _530
REMARK  221  A    between atoms: _539  and  _541
REMARK  222  A    between atoms: _541  and  _542
REMARK  223  A    between atoms: _541  and  _544
REMARK  224  A    between atoms: _544  and  _545
REMARK  225  A    between atoms: _548  and  _550
REMARK  226  A    between atoms: _550  and  _551
REMARK  227  A    between atoms: _550  and  _553
REMARK  228  A    between atoms: _553  and  _554
REMARK  229  A    between atoms: _556  and  _558
REMARK  230  A    between atoms: _558  and  _559
REMARK  231  A    between atoms: _558  and  _561
REMARK  232  A    between atoms: _561  and  _562
REMARK  233  A    between atoms: _562  and  _563
REMARK  234  A    between atoms: _563  and  _564
REMARK  235  A    between atoms: _564  and  _565
REMARK  236  A    between atoms: _569  and  _571
REMARK  237  A    between atoms: _571  and  _572
REMARK  238  A    between atoms: _571  and  _574
REMARK  239  A    between atoms: _574  and  _575
REMARK  240  A    between atoms: _578  and  _580
REMARK  241  A    between atoms: _580  and  _581
REMARK  242  A    between atoms: _583  and  _585
REMARK  243  A    between atoms: _585  and  _586
REMARK  244  A    between atoms: _585  and  _588
REMARK  245  A    between atoms: _588  and  _589
REMARK  246  A    between atoms: _591  and  _593
REMARK  247  A    between atoms: _593  and  _594
REMARK  248  A    between atoms: _596  and  _598
REMARK  249  A    between atoms: _598  and  _599
REMARK  250  A    between atoms: _598  and  _601
REMARK  251  A    between atoms: _601  and  _602
REMARK  252  A    between atoms: _607  and  _609
REMARK  253  A    between atoms: _609  and  _610
REMARK  254  A    between atoms: _609  and  _612
REMARK  255  A    between atoms: _612  and  _613
REMARK  256  A    between atoms: _616  and  _618
REMARK  257  A    between atoms: _618  and  _619
REMARK  258  A    between atoms: _618  and  _621
REMARK  259  A    between atoms: _621  and  _622
REMARK  260  A    between atoms: _628  and  _630
REMARK  261  A    between atoms: _630  and  _631
REMARK  262  A    between atoms: _630  and  _633
REMARK  263  A    between atoms: _633  and  _634
REMARK  264  A    between atoms: _634  and  _635
REMARK  265  A    between atoms: _638  and  _640
REMARK  266  A    between atoms: _640  and  _641
REMARK  267  A    between atoms: _640  and  _643
REMARK  268  A    between atoms: _643  and  _644
REMARK  269  A    between atoms: _644  and  _645
REMARK  270  A    between atoms: _645  and  _646
REMARK  271  A    between atoms: _655  and  _657
REMARK  272  A    between atoms: _657  and  _658
REMARK  273  A    between atoms: _657  and  _660
REMARK  274  A    between atoms: _660  and  _661
REMARK  275  A    between atoms: _661  and  _662
REMARK  276  A    between atoms: _662  and  _663
REMARK  277  A    between atoms: _672  and  _674
REMARK  278  A    between atoms: _674  and  _675
REMARK  279  A    between atoms: _674  and  _677
REMARK  280  A    between atoms: _677  and  _678
REMARK  281  A    between atoms: _683  and  _684
REMARK  282  A    between atoms: _686  and  _688
REMARK  283  A    between atoms: _688  and  _689
REMARK  284  A    between atoms: _688  and  _691
REMARK  285  A    between atoms: _691  and  _692
REMARK  286  A    between atoms: _695  and  _697
REMARK  287  A    between atoms: _697  and  _698
REMARK  288  A    between atoms: _697  and  _700
REMARK  289  A    between atoms: _700  and  _701
REMARK  290  A    between atoms: _701  and  _702
REMARK  291  A    between atoms: _702  and  _703
REMARK  292  A    between atoms: _703  and  _704
REMARK  293  A    between atoms: _708  and  _710
REMARK  294  A    between atoms: _710  and  _711
REMARK  295  A    between atoms: _710  and  _713
REMARK  296  A    between atoms: _713  and  _714
REMARK  297  A    between atoms: _719  and  _721
REMARK  298  A    between atoms: _721  and  _722
REMARK  299  A    between atoms: _721  and  _724
REMARK  300  A    between atoms: _724  and  _725
REMARK  301  A    between atoms: _735  and  _737
REMARK  302  A    between atoms: _737  and  _738
REMARK  303  A    between atoms: _737  and  _740
REMARK  304  A    between atoms: _740  and  _741
REMARK  305  A    between atoms: _741  and  _742
REMARK  306  A    between atoms: _745  and  _747
REMARK  307  A    between atoms: _747  and  _748
REMARK  308  A    between atoms: _747  and  _750
REMARK  309  A    between atoms: _750  and  _751
REMARK  310  A    between atoms: _754  and  _756
REMARK  311  A    between atoms: _756  and  _757
REMARK  312  A    between atoms: _756  and  _759
REMARK  313  A    between atoms: _759  and  _760
REMARK  314  A    between atoms: _765  and  _767
REMARK  315  A    between atoms: _767  and  _768
REMARK  316  A    between atoms: _767  and  _770
REMARK  317  A    between atoms: _770  and  _771
REMARK  318  A    between atoms: _777  and  _779
REMARK  319  A    between atoms: _779  and  _780
REMARK  320  A    between atoms: _779  and  _782
REMARK  321  A    between atoms: _782  and  _783
REMARK  322  A    between atoms: _785  and  _787
REMARK  323  A    between atoms: _787  and  _788
REMARK  324  A    between atoms: _790  and  _792
REMARK  325  A    between atoms: _792  and  _793
REMARK  326  A    between atoms: _792  and  _795
REMARK  327  A    between atoms: _795  and  _796
REMARK  328  A    between atoms: _801  and  _802
REMARK  329  A    between atoms: _804  and  _806
REMARK  330  A    between atoms: _806  and  _807
REMARK  331  A    between atoms: _806  and  _809
REMARK  332  A    between atoms: _809  and  _810
REMARK  333  A    between atoms: _815  and  _816
REMARK  334  A    between atoms: _818  and  _820
REMARK  335  A    between atoms: _820  and  _821
REMARK  336  A    between atoms: _820  and  _823
REMARK  337  A    between atoms: _823  and  _824
REMARK  338  A    between atoms: _828  and  ZN_938
REMARK  339  A    between atoms: _829  and  _831
REMARK  340  A    between atoms: _831  and  _832
REMARK  341  A    between atoms: _831  and  _834
REMARK  342  A    between atoms: _834  and  _835
REMARK  343  A    between atoms: _835  and  _836
REMARK  344  A    between atoms: _839  and  _841
REMARK  345  A    between atoms: _841  and  _842
REMARK  346  A    between atoms: _841  and  _844
REMARK  347  A    between atoms: _844  and  _845
REMARK  348  A    between atoms: _845  and  _846
REMARK  349  A    between atoms: _846  and  _847
REMARK  350  A    between atoms: _856  and  _858
REMARK  351  A    between atoms: _858  and  _859
REMARK  352  A    between atoms: _858  and  _861
REMARK  353  A    between atoms: _861  and  _862
REMARK  354  A    between atoms: _867  and  _868
REMARK  355  A    between atoms: _870  and  _872
REMARK  356  A    between atoms: _872  and  _873
REMARK  357  A    between atoms: _872  and  _875
REMARK  358  A    between atoms: _875  and  _876
REMARK  359  A    between atoms: _878  and  _880
REMARK  360  A    between atoms: _880  and  _881
REMARK  361  A    between atoms: _880  and  _883
REMARK  362  A    between atoms: _883  and  _884
REMARK  363  A    between atoms: _889  and  _891
REMARK  364  A    between atoms: _891  and  _892
REMARK  365  A    between atoms: _891  and  _894
REMARK  366  A    between atoms: _894  and  _895
REMARK  367  A    between atoms: _900  and  _902
REMARK  368  A    between atoms: _902  and  _903
REMARK  369  A    between atoms: _902  and  _905
REMARK  370  A    between atoms: _905  and  _906
REMARK  371  A    between atoms: _906  and  _907
REMARK  372  A    between atoms: _907  and  _908
REMARK  373  A    between atoms: _908  and  _909
REMARK  374  A    between atoms: _913  and  _915
REMARK  375  A    between atoms: _915  and  _916
REMARK  376  A    between atoms: _915  and  _918
REMARK  377  A    between atoms: _918  and  _919
REMARK  378  A    between atoms: _924  and  _925
REMARK  379  A    between atoms: _927  and  _929
REMARK  380  A    between atoms: _929  and  _930
REMARK  381  A    between atoms: _933  and  _935
REMARK  382  A    between atoms: _935  and  _936
REMARK                            x       y       z     vdW  Elec       q    Type
REMARK                         _______ _______ _______ _____ _____    ______ ____
ROOT
ATOM      1  O   HOH     1       8.100  51.786  43.189  0.00  0.00    +0.000 OA
ENDROOT
TORSDOF 0
REMARK  Name = ../refined-set-2016/2xeg/2xeg_pocket.pdb
REMARK  382 active torsions:
REMARK  status: ('A' for Active; 'I' for Inactive)
REMARK    1  A    between atoms: _1  and  _3
REMARK    2  A    between atoms: _3  and  _4
REMARK    3  A    between atoms: _7  and  _9
REMARK    4  A    between atoms: _9  and  _10
REMARK    5  A    between atoms: _9  and  _12
REMARK    6  A    between atoms: _12  and  _13
REMARK    7  A    between atoms: _19  and  _21
REMARK    8  A    between atoms: _21  and  _22
REMARK    9  A    between atoms: _21  and  _24
REMARK   10  A    between atoms: _24  and  _25
REMARK   11  A    between atoms: _30  and  _31
REMARK   12  A    between atoms: _33  and  _35
REMARK   13  A    between atoms: _35  and  _36
REMARK   14  A    between atoms: _38  and  _40
REMARK   15  A    between atoms: _40  and  _41
REMARK   16  A    between atoms: _40  and  _43
REMARK   17  A    between atoms: _43  and  _44
REMARK   18  A    between atoms: _44  and  _45
REMARK   19  A    between atoms: _45  and  _46
REMARK   20  A    between atoms: _46  and  _47
REMARK   21  A    between atoms: _51  and  _53
REMARK   22  A    between atoms: _53  and  _54
REMARK   23  A    between atoms: _53  and  _56
REMARK   24  A    between atoms: _59  and  _61
REMARK   25  A    between atoms: _61  and  _62
REMARK   26  A    between atoms: _61  and  _64
REMARK   27  A    between atoms: _64  and  _65
REMARK   28  A    between atoms: _71  and  _73
REMARK   29  A    between atoms: _73  and  _74
REMARK   30  A    between atoms: _73  and  _76
REMARK   31  A    between atoms: _76  and  _77
REMARK   32  A    between atoms: _77  and  _78
REMARK   33  A    between atoms: _78  and  _79
REMARK   34  A    between atoms: _88  and  _90
REMARK   35  A    between atoms: _90  and  _91
REMARK   36  A    between atoms: _93  and  _95
REMARK   37  A    between atoms: _95  and  _96
REMARK   38  A    between atoms: _95  and  _98
REMARK   39  A    between atoms: _98  and  _99
REMARK   40  A    between atoms: _99  and  _100
REMARK   41  A    between atoms: _100  and  _101
REMARK   42  A    between atoms: _101  and  _102
REMARK   43  A    between atoms: _106  and  _108
REMARK   44  A    between atoms: _108  and  _109
REMARK   45  A    between atoms: _108  and  _111
REMARK   46  A    between atoms: _111  and  _112
REMARK   47  A    between atoms: _115  and  _117
REMARK   48  A    between atoms: _117  and  _118
REMARK   49  A    between atoms: _117  and  _120
REMARK   50  A    between atoms: _120  and  _121
REMARK   51  A    between atoms: _126  and  _127
REMARK   52  A    between atoms: _129  and  _131
REMARK   53  A    between atoms: _131  and  _132
REMARK   54  A    between atoms: _131  and  _134
REMARK   55  A    between atoms: _134  and  _135
REMARK   56  A    between atoms: _135  and  _136
REMARK   57  A    between atoms: _141  and  _143
REMARK   58  A    between atoms: _143  and  _144
REMARK   59  A    between atoms: _143  and  _146
REMARK   60  A    between atoms: _146  and  _147
REMARK   61  A    between atoms: _147  and  _148
REMARK   62  A    between atoms: _148  and  _149
REMARK   63  A    between atoms: _158  and  _160
REMARK   64  A    between atoms: _160  and  _161
REMARK   65  A    between atoms: _163  and  _165
REMARK   66  A    between atoms: _165  and  _166
REMARK   67  A    between atoms: _165  and  _168
REMARK   68  A    between atoms: _168  and  _169
REMARK   69  A    between atoms: _174  and  _176
REMARK   70  A    between atoms: _176  and  _177
REMARK   71  A    between atoms: _176  and  _179
REMARK   72  A    between atoms: _179  and  _180
REMARK   73  A    between atoms: _183  and  _185
REMARK   74  A    between atoms: _185  and  _186
REMARK   75  A    between atoms: _185  and  _188
REMARK   76  A    between atoms: _188  and  _189
REMARK   77  A    between atoms: _192  and  _194
REMARK   78  A    between atoms: _194  and  _195
REMARK   79  A    between atoms: _194  and  _197
REMARK   80  A    between atoms: _197  and  _198
REMARK   81  A    between atoms: _203  and  _205
REMARK   82  A    between atoms: _205  and  _206
REMARK   83  A    between atoms: _205  and  _208
REMARK   84  A    between atoms: _208  and  _209
REMARK   85  A    between atoms: _212  and  _214
REMARK   86  A    between atoms: _214  and  _215
REMARK   87  A    between atoms: _214  and  _217
REMARK   88  A    between atoms: _217  and  _218
REMARK   89  A    between atoms: _223  and  _225
REMARK   90  A    between atoms: _225  and  _226
REMARK   91  A    between atoms: _228  and  _230
REMARK   92  A    between atoms: _230  and  _231
REMARK   93  A    between atoms: _230  and  _233
REMARK   94  A    between atoms: _233  and  _234
REMARK   95  A    between atoms: _238  and  ZN_939
REMARK   96  A    between atoms: _239  and  _241
REMARK   97  A    between atoms: _241  and  _242
REMARK   98  A    between atoms: _241  and  _244
REMARK   99  A    between atoms: _244  and  _245
REMARK  100  A    between atoms: _248  and  _250
REMARK  101  A    between atoms: _250  and  _251
REMARK  102  A    between atoms: _250  and  _253
REMARK  103  A    between atoms: _253  and  _254
REMARK  104  A    between atoms: _264  and  _266
REMARK  105  A    between atoms: _266  and  _267
REMARK  106  A    between atoms: _266  and  _269
REMARK  107  A    between atoms: _269  and  _270
REMARK  108  A    between atoms: _273  and  _275
REMARK  109  A    between atoms: _275  and  _276
REMARK  110  A    between atoms: _275  and  _278
REMARK  111  A    between atoms: _278  and  _279
REMARK  112  A    between atoms: _279  and  _280
REMARK  113  A    between atoms: _279  and  _281
REMARK  114  A    between atoms: _280  and  ZN_939
REMARK  115  A    between atoms: _281  and  ZN_938
REMARK  116  A    between atoms: _283  and  _284
REMARK  117  A    between atoms: _289  and  _291
REMARK  118  A    between atoms: _291  and  _292
REMARK  119  A    between atoms: _295  and  _297
REMARK  120  A    between atoms: _297  and  _298
REMARK  121  A    between atoms: _297  and  _300
REMARK  122  A    between atoms: _300  and  _301
REMARK  123  A    between atoms: _301  and  _302
REMARK  124  A    between atoms: _305  and  _307
REMARK  125  A    between atoms: _307  and  _308
REMARK  126  A    between atoms: _307  and  _310
REMARK  127  A    between atoms: _310  and  _311
REMARK  128  A    between atoms: _311  and  _312
REMARK  129  A    between atoms: _312  and  _314
REMARK  130  A    between atoms: _314  and  ZN_938
REMARK  131  A    between atoms: _315  and  _317
REMARK  132  A    between atoms: _317  and  _318
REMARK  133  A    between atoms: _317  and  _320
REMARK  134  A    between atoms: _320  and  _321
REMARK  135  A    between atoms: _327  and  _329
REMARK  136  A    between atoms: _329  and  _330
REMARK  137  A    between atoms: _332  and  _334
REMARK  138  A    between atoms: _334  and  _335
REMARK  139  A    between atoms: _334  and  _337
REMARK  140  A    between atoms: _337  and  _338
REMARK  141  A    between atoms: _341  and  _343
REMARK  142  A    between atoms: _343  and  _344
REMARK  143  A    between atoms: _343  and  _346
REMARK  144  A    between atoms: _346  and  _347
REMARK  145  A    between atoms: _350  and  _352
REMARK  146  A    between atoms: _352  and  _353
REMARK  147  A    between atoms: _352  and  _355
REMARK  148  A    between atoms: _355  and  _356
REMARK  149  A    between atoms: _361  and  _363
REMARK  150  A    between atoms: _363  and  _364
REMARK  151  A    between atoms: _363  and  _366
REMARK  152  A    between atoms: _366  and  _367
REMARK  153  A    between atoms: _367  and  _369
REMARK  154  A    between atoms: _369  and  ZN_939
REMARK  155  A    between atoms: _370  and  _372
REMARK  156  A    between atoms: _372  and  _373
REMARK  157  A    between atoms: _372  and  _375
REMARK  158  A    between atoms: _375  and  _376
REMARK  159  A    between atoms: _378  and  _380
REMARK  160  A    between atoms: _380  and  _381
REMARK  161  A    between atoms: _380  and  _383
REMARK  162  A    between atoms: _383  and  _384
REMARK  163  A    between atoms: _386  and  _388
REMARK  164  A    between atoms: _388  and  _389
REMARK  165  A    between atoms: _388  and  _391
REMARK  166  A    between atoms: _391  and  _392
REMARK  167  A    between atoms: _395  and  _397
REMARK  168  A    between atoms: _397  and  _398
REMARK  169  A    between atoms: _397  and  _400
REMARK  170  A    between atoms: _400  and  _401
REMARK  171  A    between atoms: _401  and  _402
REMARK  172  A    between atoms: _405  and  _407
REMARK  173  A    between atoms: _407  and  _408
REMARK  174  A    between atoms: _407  and  _410
REMARK  175  A    between atoms: _410  and  _411
REMARK  176  A    between atoms: _416  and  _417
REMARK  177  A    between atoms: _419  and  _421
REMARK  178  A    between atoms: _421  and  _422
REMARK  179  A    between atoms: _421  and  _424
REMARK  180  A    between atoms: _424  and  _425
REMARK  181  A    between atoms: _428  and  _430
REMARK  182  A    between atoms: _430  and  _431
REMARK  183  A    between atoms: _430  and  _433
REMARK  184  A    between atoms: _433  and  _434
REMARK  185  A    between atoms: _437  and  _439
REMARK  186  A    between atoms: _439  and  _440
REMARK  187  A    between atoms: _439  and  _442
REMARK  188  A    between atoms: _442  and  _443
REMARK  189  A    between atoms: _443  and  _444
REMARK  190  A    between atoms: _444  and  _445
REMARK  191  A    between atoms: _454  and  _456
REMARK  192  A    between atoms: _456  and  _457
REMARK  193  A    between atoms: _456  and  _459
REMARK  194  A    between atoms: _462  and  _464
REMARK  195  A    between atoms: _464  and  _465
REMARK  196  A    between atoms: _464  and  _467
REMARK  197  A    between atoms: _467  and  _468
REMARK  198  A    between atoms: _471  and  _473
REMARK  199  A    between atoms: _473  and  _474
REMARK  200  A    between atoms: _473  and  _476
REMARK  201  A    between atoms: _476  and  _477
REMARK  202  A    between atoms: _487  and  _489
REMARK  203  A    between atoms: _489  and  _490
REMARK  204  A    between atoms: _489  and  _492
REMARK  205  A    between atoms: _492  and  _493
REMARK  206  A    between atoms: _493  and  _494
REMARK  207  A    between atoms: _494  and  _495
REMARK  208  A    between atoms: _495  and  _496
REMARK  209  A    between atoms: _500  and  _502
REMARK  210  A    between atoms: _502  and  _503
REMARK  211  A    between atoms: _502  and  _505
REMARK  212  A    between atoms: _505  and  _506
REMARK  213  A    between atoms: _509  and  _510
REMARK  214  A    between atoms: _516  and  _517
REMARK  215  A    between atoms: _522  and  _524
REMARK  216  A    between atoms: _524  and  _525
REMARK  217  A    between atoms: _524  and  _527
REMARK  218  A    between atoms: _527  and  _528
REMARK  219  A    between atoms: _528  and  _529
REMARK  220  A    between atoms: _529  and  _530
REMARK  221  A    between atoms: _539  and  _541
REMARK  222  A    between atoms: _541  and  _542
REMARK  223  A    between atoms: _541  and  _544
REMARK  224  A    between atoms: _544  and  _545
REMARK  225  A    between atoms: _548  and  _550
REMARK  226  A    between atoms: _550  and  _551
REMARK  227  A    between atoms: _550  and  _553
REMARK  228  A    between atoms: _553  and  _554
REMARK  229  A    between atoms: _556  and  _558
REMARK  230  A    between atoms: _558  and  _559
REMARK  231  A    between atoms: _558  and  _561
REMARK  232  A    between atoms: _561  and  _562
REMARK  233  A    between atoms: _562  and  _563
REMARK  234  A    between atoms: _563  and  _564
REMARK  235  A    between atoms: _564  and  _565
REMARK  236  A    between atoms: _569  and  _571
REMARK  237  A    between atoms: _571  and  _572
REMARK  238  A    between atoms: _571  and  _574
REMARK  239  A    between atoms: _574  and  _575
REMARK  240  A    between atoms: _578  and  _580
REMARK  241  A    between atoms: _580  and  _581
REMARK  242  A    between atoms: _583  and  _585
REMARK  243  A    between atoms: _585  and  _586
REMARK  244  A    between atoms: _585  and  _588
REMARK  245  A    between atoms: _588  and  _589
REMARK  246  A    between atoms: _591  and  _593
REMARK  247  A    between atoms: _593  and  _594
REMARK  248  A    between atoms: _596  and  _598
REMARK  249  A    between atoms: _598  and  _599
REMARK  250  A    between atoms: _598  and  _601
REMARK  251  A    between atoms: _601  and  _602
REMARK  252  A    between atoms: _607  and  _609
REMARK  253  A    between atoms: _609  and  _610
REMARK  254  A    between atoms: _609  and  _612
REMARK  255  A    between atoms: _612  and  _613
REMARK  256  A    between atoms: _616  and  _618
REMARK  257  A    between atoms: _618  and  _619
REMARK  258  A    between atoms: _618  and  _621
REMARK  259  A    between atoms: _621  and  _622
REMARK  260  A    between atoms: _628  and  _630
REMARK  261  A    between atoms: _630  and  _631
REMARK  262  A    between atoms: _630  and  _633
REMARK  263  A    between atoms: _633  and  _634
REMARK  264  A    between atoms: _634  and  _635
REMARK  265  A    between atoms: _638  and  _640
REMARK  266  A    between atoms: _640  and  _641
REMARK  267  A    between atoms: _640  and  _643
REMARK  268  A    between atoms: _643  and  _644
REMARK  269  A    between atoms: _644  and  _645
REMARK  270  A    between atoms: _645  and  _646
REMARK  271  A    between atoms: _655  and  _657
REMARK  272  A    between atoms: _657  and  _658
REMARK  273  A    between atoms: _657  and  _660
REMARK  274  A    between atoms: _660  and  _661
REMARK  275  A    between atoms: _661  and  _662
REMARK  276  A    between atoms: _662  and  _663
REMARK  277  A    between atoms: _672  and  _674
REMARK  278  A    between atoms: _674  and  _675
REMARK  279  A    between atoms: _674  and  _677
REMARK  280  A    between atoms: _677  and  _678
REMARK  281  A    between atoms: _683  and  _684
REMARK  282  A    between atoms: _686  and  _688
REMARK  283  A    between atoms: _688  and  _689
REMARK  284  A    between atoms: _688  and  _691
REMARK  285  A    between atoms: _691  and  _692
REMARK  286  A    between atoms: _695  and  _697
REMARK  287  A    between atoms: _697  and  _698
REMARK  288  A    between atoms: _697  and  _700
REMARK  289  A    between atoms: _700  and  _701
REMARK  290  A    between atoms: _701  and  _702
REMARK  291  A    between atoms: _702  and  _703
REMARK  292  A    between atoms: _703  and  _704
REMARK  293  A    between atoms: _708  and  _710
REMARK  294  A    between atoms: _710  and  _711
REMARK  295  A    between atoms: _710  and  _713
REMARK  296  A    between atoms: _713  and  _714
REMARK  297  A    between atoms: _719  and  _721
REMARK  298  A    between atoms: _721  and  _722
REMARK  299  A    between atoms: _721  and  _724
REMARK  300  A    between atoms: _724  and  _725
REMARK  301  A    between atoms: _735  and  _737
REMARK  302  A    between atoms: _737  and  _738
REMARK  303  A    between atoms: _737  and  _740
REMARK  304  A    between atoms: _740  and  _741
REMARK  305  A    between atoms: _741  and  _742
REMARK  306  A    between atoms: _745  and  _747
REMARK  307  A    between atoms: _747  and  _748
REMARK  308  A    between atoms: _747  and  _750
REMARK  309  A    between atoms: _750  and  _751
REMARK  310  A    between atoms: _754  and  _756
REMARK  311  A    between atoms: _756  and  _757
REMARK  312  A    between atoms: _756  and  _759
REMARK  313  A    between atoms: _759  and  _760
REMARK  314  A    between atoms: _765  and  _767
REMARK  315  A    between atoms: _767  and  _768
REMARK  316  A    between atoms: _767  and  _770
REMARK  317  A    between atoms: _770  and  _771
REMARK  318  A    between atoms: _777  and  _779
REMARK  319  A    between atoms: _779  and  _780
REMARK  320  A    between atoms: _779  and  _782
REMARK  321  A    between atoms: _782  and  _783
REMARK  322  A    between atoms: _785  and  _787
REMARK  323  A    between atoms: _787  and  _788
REMARK  324  A    between atoms: _790  and  _792
REMARK  325  A    between atoms: _792  and  _793
REMARK  326  A    between atoms: _792  and  _795
REMARK  327  A    between atoms: _795  and  _796
REMARK  328  A    between atoms: _801  and  _802
REMARK  329  A    between atoms: _804  and  _806
REMARK  330  A    between atoms: _806  and  _807
REMARK  331  A    between atoms: _806  and  _809
REMARK  332  A    between atoms: _809  and  _810
REMARK  333  A    between atoms: _815  and  _816
REMARK  334  A    between atoms: _818  and  _820
REMARK  335  A    between atoms: _820  and  _821
REMARK  336  A    between atoms: _820  and  _823
REMARK  337  A    between atoms: _823  and  _824
REMARK  338  A    between atoms: _828  and  ZN_938
REMARK  339  A    between atoms: _829  and  _831
REMARK  340  A    between atoms: _831  and  _832
REMARK  341  A    between atoms: _831  and  _834
REMARK  342  A    between atoms: _834  and  _835
REMARK  343  A    between atoms: _835  and  _836
REMARK  344  A    between atoms: _839  and  _841
REMARK  345  A    between atoms: _841  and  _842
REMARK  346  A    between atoms: _841  and  _844
REMARK  347  A    between atoms: _844  and  _845
REMARK  348  A    between atoms: _845  and  _846
REMARK  349  A    between atoms: _846  and  _847
REMARK  350  A    between atoms: _856  and  _858
REMARK  351  A    between atoms: _858  and  _859
REMARK  352  A    between atoms: _858  and  _861
REMARK  353  A    between atoms: _861  and  _862
REMARK  354  A    between atoms: _867  and  _868
REMARK  355  A    between atoms: _870  and  _872
REMARK  356  A    between atoms: _872  and  _873
REMARK  357  A    between atoms: _872  and  _875
REMARK  358  A    between atoms: _875  and  _876
REMARK  359  A    between atoms: _878  and  _880
REMARK  360  A    between atoms: _880  and  _881
REMARK  361  A    between atoms: _880  and  _883
REMARK  362  A    between atoms: _883  and  _884
REMARK  363  A    between atoms: _889  and  _891
REMARK  364  A    between atoms: _891  and  _892
REMARK  365  A    between atoms: _891  and  _894
REMARK  366  A    between atoms: _894  and  _895
REMARK  367  A    between atoms: _900  and  _902
REMARK  368  A    between atoms: _902  and  _903
REMARK  369  A    between atoms: _902  and  _905
REMARK  370  A    between atoms: _905  and  _906
REMARK  371  A    between atoms: _906  and  _907
REMARK  372  A    between atoms: _907  and  _908
REMARK  373  A    between atoms: _908  and  _909
REMARK  374  A    between atoms: _913  and  _915
REMARK  375  A    between atoms: _915  and  _916
REMARK  376  A    between atoms: _915  and  _918
REMARK  377  A    between atoms: _918  and  _919
REMARK  378  A    between atoms: _924  and  _925
REMARK  379  A    between atoms: _927  and  _929
REMARK  380  A    between atoms: _929  and  _930
REMARK  381  A    between atoms: _933  and  _935
REMARK  382  A    between atoms: _935  and  _936
REMARK                            x       y       z     vdW  Elec       q    Type
REMARK                         _______ _______ _______ _____ _____    ______ ____
ROOT
ATOM      1  O   HOH     1      10.170  51.745  40.044  0.00  0.00    +0.000 OA
ENDROOT
TORSDOF 0
REMARK  Name = ../refined-set-2016/2xeg/2xeg_pocket.pdb
REMARK  382 active torsions:
REMARK  status: ('A' for Active; 'I' for Inactive)
REMARK    1  A    between atoms: _1  and  _3
REMARK    2  A    between atoms: _3  and  _4
REMARK    3  A    between atoms: _7  and  _9
REMARK    4  A    between atoms: _9  and  _10
REMARK    5  A    between atoms: _9  and  _12
REMARK    6  A    between atoms: _12  and  _13
REMARK    7  A    between atoms: _19  and  _21
REMARK    8  A    between atoms: _21  and  _22
REMARK    9  A    between atoms: _21  and  _24
REMARK   10  A    between atoms: _24  and  _25
REMARK   11  A    between atoms: _30  and  _31
REMARK   12  A    between atoms: _33  and  _35
REMARK   13  A    between atoms: _35  and  _36
REMARK   14  A    between atoms: _38  and  _40
REMARK   15  A    between atoms: _40  and  _41
REMARK   16  A    between atoms: _40  and  _43
REMARK   17  A    between atoms: _43  and  _44
REMARK   18  A    between atoms: _44  and  _45
REMARK   19  A    between atoms: _45  and  _46
REMARK   20  A    between atoms: _46  and  _47
REMARK   21  A    between atoms: _51  and  _53
REMARK   22  A    between atoms: _53  and  _54
REMARK   23  A    between atoms: _53  and  _56
REMARK   24  A    between atoms: _59  and  _61
REMARK   25  A    between atoms: _61  and  _62
REMARK   26  A    between atoms: _61  and  _64
REMARK   27  A    between atoms: _64  and  _65
REMARK   28  A    between atoms: _71  and  _73
REMARK   29  A    between atoms: _73  and  _74
REMARK   30  A    between atoms: _73  and  _76
REMARK   31  A    between atoms: _76  and  _77
REMARK   32  A    between atoms: _77  and  _78
REMARK   33  A    between atoms: _78  and  _79
REMARK   34  A    between atoms: _88  and  _90
REMARK   35  A    between atoms: _90  and  _91
REMARK   36  A    between atoms: _93  and  _95
REMARK   37  A    between atoms: _95  and  _96
REMARK   38  A    between atoms: _95  and  _98
REMARK   39  A    between atoms: _98  and  _99
REMARK   40  A    between atoms: _99  and  _100
REMARK   41  A    between atoms: _100  and  _101
REMARK   42  A    between atoms: _101  and  _102
REMARK   43  A    between atoms: _106  and  _108
REMARK   44  A    between atoms: _108  and  _109
REMARK   45  A    between atoms: _108  and  _111
REMARK   46  A    between atoms: _111  and  _112
REMARK   47  A    between atoms: _115  and  _117
REMARK   48  A    between atoms: _117  and  _118
REMARK   49  A    between atoms: _117  and  _120
REMARK   50  A    between atoms: _120  and  _121
REMARK   51  A    between atoms: _126  and  _127
REMARK   52  A    between atoms: _129  and  _131
REMARK   53  A    between atoms: _131  and  _132
REMARK   54  A    between atoms: _131  and  _134
REMARK   55  A    between atoms: _134  and  _135
REMARK   56  A    between atoms: _135  and  _136
REMARK   57  A    between atoms: _141  and  _143
REMARK   58  A    between atoms: _143  and  _144
REMARK   59  A    between atoms: _143  and  _146
REMARK   60  A    between atoms: _146  and  _147
REMARK   61  A    between atoms: _147  and  _148
REMARK   62  A    between atoms: _148  and  _149
REMARK   63  A    between atoms: _158  and  _160
REMARK   64  A    between atoms: _160  and  _161
REMARK   65  A    between atoms: _163  and  _165
REMARK   66  A    between atoms: _165  and  _166
REMARK   67  A    between atoms: _165  and  _168
REMARK   68  A    between atoms: _168  and  _169
REMARK   69  A    between atoms: _174  and  _176
REMARK   70  A    between atoms: _176  and  _177
REMARK   71  A    between atoms: _176  and  _179
REMARK   72  A    between atoms: _179  and  _180
REMARK   73  A    between atoms: _183  and  _185
REMARK   74  A    between atoms: _185  and  _186
REMARK   75  A    between atoms: _185  and  _188
REMARK   76  A    between atoms: _188  and  _189
REMARK   77  A    between atoms: _192  and  _194
REMARK   78  A    between atoms: _194  and  _195
REMARK   79  A    between atoms: _194  and  _197
REMARK   80  A    between atoms: _197  and  _198
REMARK   81  A    between atoms: _203  and  _205
REMARK   82  A    between atoms: _205  and  _206
REMARK   83  A    between atoms: _205  and  _208
REMARK   84  A    between atoms: _208  and  _209
REMARK   85  A    between atoms: _212  and  _214
REMARK   86  A    between atoms: _214  and  _215
REMARK   87  A    between atoms: _214  and  _217
REMARK   88  A    between atoms: _217  and  _218
REMARK   89  A    between atoms: _223  and  _225
REMARK   90  A    between atoms: _225  and  _226
REMARK   91  A    between atoms: _228  and  _230
REMARK   92  A    between atoms: _230  and  _231
REMARK   93  A    between atoms: _230  and  _233
REMARK   94  A    between atoms: _233  and  _234
REMARK   95  A    between atoms: _238  and  ZN_939
REMARK   96  A    between atoms: _239  and  _241
REMARK   97  A    between atoms: _241  and  _242
REMARK   98  A    between atoms: _241  and  _244
REMARK   99  A    between atoms: _244  and  _245
REMARK  100  A    between atoms: _248  and  _250
REMARK  101  A    between atoms: _250  and  _251
REMARK  102  A    between atoms: _250  and  _253
REMARK  103  A    between atoms: _253  and  _254
REMARK  104  A    between atoms: _264  and  _266
REMARK  105  A    between atoms: _266  and  _267
REMARK  106  A    between atoms: _266  and  _269
REMARK  107  A    between atoms: _269  and  _270
REMARK  108  A    between atoms: _273  and  _275
REMARK  109  A    between atoms: _275  and  _276
REMARK  110  A    between atoms: _275  and  _278
REMARK  111  A    between atoms: _278  and  _279
REMARK  112  A    between atoms: _279  and  _280
REMARK  113  A    between atoms: _279  and  _281
REMARK  114  A    between atoms: _280  and  ZN_939
REMARK  115  A    between atoms: _281  and  ZN_938
REMARK  116  A    between atoms: _283  and  _284
REMARK  117  A    between atoms: _289  and  _291
REMARK  118  A    between atoms: _291  and  _292
REMARK  119  A    between atoms: _295  and  _297
REMARK  120  A    between atoms: _297  and  _298
REMARK  121  A    between atoms: _297  and  _300
REMARK  122  A    between atoms: _300  and  _301
REMARK  123  A    between atoms: _301  and  _302
REMARK  124  A    between atoms: _305  and  _307
REMARK  125  A    between atoms: _307  and  _308
REMARK  126  A    between atoms: _307  and  _310
REMARK  127  A    between atoms: _310  and  _311
REMARK  128  A    between atoms: _311  and  _312
REMARK  129  A    between atoms: _312  and  _314
REMARK  130  A    between atoms: _314  and  ZN_938
REMARK  131  A    between atoms: _315  and  _317
REMARK  132  A    between atoms: _317  and  _318
REMARK  133  A    between atoms: _317  and  _320
REMARK  134  A    between atoms: _320  and  _321
REMARK  135  A    between atoms: _327  and  _329
REMARK  136  A    between atoms: _329  and  _330
REMARK  137  A    between atoms: _332  and  _334
REMARK  138  A    between atoms: _334  and  _335
REMARK  139  A    between atoms: _334  and  _337
REMARK  140  A    between atoms: _337  and  _338
REMARK  141  A    between atoms: _341  and  _343
REMARK  142  A    between atoms: _343  and  _344
REMARK  143  A    between atoms: _343  and  _346
REMARK  144  A    between atoms: _346  and  _347
REMARK  145  A    between atoms: _350  and  _352
REMARK  146  A    between atoms: _352  and  _353
REMARK  147  A    between atoms: _352  and  _355
REMARK  148  A    between atoms: _355  and  _356
REMARK  149  A    between atoms: _361  and  _363
REMARK  150  A    between atoms: _363  and  _364
REMARK  151  A    between atoms: _363  and  _366
REMARK  152  A    between atoms: _366  and  _367
REMARK  153  A    between atoms: _367  and  _369
REMARK  154  A    between atoms: _369  and  ZN_939
REMARK  155  A    between atoms: _370  and  _372
REMARK  156  A    between atoms: _372  and  _373
REMARK  157  A    between atoms: _372  and  _375
REMARK  158  A    between atoms: _375  and  _376
REMARK  159  A    between atoms: _378  and  _380
REMARK  160  A    between atoms: _380  and  _381
REMARK  161  A    between atoms: _380  and  _383
REMARK  162  A    between atoms: _383  and  _384
REMARK  163  A    between atoms: _386  and  _388
REMARK  164  A    between atoms: _388  and  _389
REMARK  165  A    between atoms: _388  and  _391
REMARK  166  A    between atoms: _391  and  _392
REMARK  167  A    between atoms: _395  and  _397
REMARK  168  A    between atoms: _397  and  _398
REMARK  169  A    between atoms: _397  and  _400
REMARK  170  A    between atoms: _400  and  _401
REMARK  171  A    between atoms: _401  and  _402
REMARK  172  A    between atoms: _405  and  _407
REMARK  173  A    between atoms: _407  and  _408
REMARK  174  A    between atoms: _407  and  _410
REMARK  175  A    between atoms: _410  and  _411
REMARK  176  A    between atoms: _416  and  _417
REMARK  177  A    between atoms: _419  and  _421
REMARK  178  A    between atoms: _421  and  _422
REMARK  179  A    between atoms: _421  and  _424
REMARK  180  A    between atoms: _424  and  _425
REMARK  181  A    between atoms: _428  and  _430
REMARK  182  A    between atoms: _430  and  _431
REMARK  183  A    between atoms: _430  and  _433
REMARK  184  A    between atoms: _433  and  _434
REMARK  185  A    between atoms: _437  and  _439
REMARK  186  A    between atoms: _439  and  _440
REMARK  187  A    between atoms: _439  and  _442
REMARK  188  A    between atoms: _442  and  _443
REMARK  189  A    between atoms: _443  and  _444
REMARK  190  A    between atoms: _444  and  _445
REMARK  191  A    between atoms: _454  and  _456
REMARK  192  A    between atoms: _456  and  _457
REMARK  193  A    between atoms: _456  and  _459
REMARK  194  A    between atoms: _462  and  _464
REMARK  195  A    between atoms: _464  and  _465
REMARK  196  A    between atoms: _464  and  _467
REMARK  197  A    between atoms: _467  and  _468
REMARK  198  A    between atoms: _471  and  _473
REMARK  199  A    between atoms: _473  and  _474
REMARK  200  A    between atoms: _473  and  _476
REMARK  201  A    between atoms: _476  and  _477
REMARK  202  A    between atoms: _487  and  _489
REMARK  203  A    between atoms: _489  and  _490
REMARK  204  A    between atoms: _489  and  _492
REMARK  205  A    between atoms: _492  and  _493
REMARK  206  A    between atoms: _493  and  _494
REMARK  207  A    between atoms: _494  and  _495
REMARK  208  A    between atoms: _495  and  _496
REMARK  209  A    between atoms: _500  and  _502
REMARK  210  A    between atoms: _502  and  _503
REMARK  211  A    between atoms: _502  and  _505
REMARK  212  A    between atoms: _505  and  _506
REMARK  213  A    between atoms: _509  and  _510
REMARK  214  A    between atoms: _516  and  _517
REMARK  215  A    between atoms: _522  and  _524
REMARK  216  A    between atoms: _524  and  _525
REMARK  217  A    between atoms: _524  and  _527
REMARK  218  A    between atoms: _527  and  _528
REMARK  219  A    between atoms: _528  and  _529
REMARK  220  A    between atoms: _529  and  _530
REMARK  221  A    between atoms: _539  and  _541
REMARK  222  A    between atoms: _541  and  _542
REMARK  223  A    between atoms: _541  and  _544
REMARK  224  A    between atoms: _544  and  _545
REMARK  225  A    between atoms: _548  and  _550
REMARK  226  A    between atoms: _550  and  _551
REMARK  227  A    between atoms: _550  and  _553
REMARK  228  A    between atoms: _553  and  _554
REMARK  229  A    between atoms: _556  and  _558
REMARK  230  A    between atoms: _558  and  _559
REMARK  231  A    between atoms: _558  and  _561
REMARK  232  A    between atoms: _561  and  _562
REMARK  233  A    between atoms: _562  and  _563
REMARK  234  A    between atoms: _563  and  _564
REMARK  235  A    between atoms: _564  and  _565
REMARK  236  A    between atoms: _569  and  _571
REMARK  237  A    between atoms: _571  and  _572
REMARK  238  A    between atoms: _571  and  _574
REMARK  239  A    between atoms: _574  and  _575
REMARK  240  A    between atoms: _578  and  _580
REMARK  241  A    between atoms: _580  and  _581
REMARK  242  A    between atoms: _583  and  _585
REMARK  243  A    between atoms: _585  and  _586
REMARK  244  A    between atoms: _585  and  _588
REMARK  245  A    between atoms: _588  and  _589
REMARK  246  A    between atoms: _591  and  _593
REMARK  247  A    between atoms: _593  and  _594
REMARK  248  A    between atoms: _596  and  _598
REMARK  249  A    between atoms: _598  and  _599
REMARK  250  A    between atoms: _598  and  _601
REMARK  251  A    between atoms: _601  and  _602
REMARK  252  A    between atoms: _607  and  _609
REMARK  253  A    between atoms: _609  and  _610
REMARK  254  A    between atoms: _609  and  _612
REMARK  255  A    between atoms: _612  and  _613
REMARK  256  A    between atoms: _616  and  _618
REMARK  257  A    between atoms: _618  and  _619
REMARK  258  A    between atoms: _618  and  _621
REMARK  259  A    between atoms: _621  and  _622
REMARK  260  A    between atoms: _628  and  _630
REMARK  261  A    between atoms: _630  and  _631
REMARK  262  A    between atoms: _630  and  _633
REMARK  263  A    between atoms: _633  and  _634
REMARK  264  A    between atoms: _634  and  _635
REMARK  265  A    between atoms: _638  and  _640
REMARK  266  A    between atoms: _640  and  _641
REMARK  267  A    between atoms: _640  and  _643
REMARK  268  A    between atoms: _643  and  _644
REMARK  269  A    between atoms: _644  and  _645
REMARK  270  A    between atoms: _645  and  _646
REMARK  271  A    between atoms: _655  and  _657
REMARK  272  A    between atoms: _657  and  _658
REMARK  273  A    between atoms: _657  and  _660
REMARK  274  A    between atoms: _660  and  _661
REMARK  275  A    between atoms: _661  and  _662
REMARK  276  A    between atoms: _662  and  _663
REMARK  277  A    between atoms: _672  and  _674
REMARK  278  A    between atoms: _674  and  _675
REMARK  279  A    between atoms: _674  and  _677
REMARK  280  A    between atoms: _677  and  _678
REMARK  281  A    between atoms: _683  and  _684
REMARK  282  A    between atoms: _686  and  _688
REMARK  283  A    between atoms: _688  and  _689
REMARK  284  A    between atoms: _688  and  _691
REMARK  285  A    between atoms: _691  and  _692
REMARK  286  A    between atoms: _695  and  _697
REMARK  287  A    between atoms: _697  and  _698
REMARK  288  A    between atoms: _697  and  _700
REMARK  289  A    between atoms: _700  and  _701
REMARK  290  A    between atoms: _701  and  _702
REMARK  291  A    between atoms: _702  and  _703
REMARK  292  A    between atoms: _703  and  _704
REMARK  293  A    between atoms: _708  and  _710
REMARK  294  A    between atoms: _710  and  _711
REMARK  295  A    between atoms: _710  and  _713
REMARK  296  A    between atoms: _713  and  _714
REMARK  297  A    between atoms: _719  and  _721
REMARK  298  A    between atoms: _721  and  _722
REMARK  299  A    between atoms: _721  and  _724
REMARK  300  A    between atoms: _724  and  _725
REMARK  301  A    between atoms: _735  and  _737
REMARK  302  A    between atoms: _737  and  _738
REMARK  303  A    between atoms: _737  and  _740
REMARK  304  A    between atoms: _740  and  _741
REMARK  305  A    between atoms: _741  and  _742
REMARK  306  A    between atoms: _745  and  _747
REMARK  307  A    between atoms: _747  and  _748
REMARK  308  A    between atoms: _747  and  _750
REMARK  309  A    between atoms: _750  and  _751
REMARK  310  A    between atoms: _754  and  _756
REMARK  311  A    between atoms: _756  and  _757
REMARK  312  A    between atoms: _756  and  _759
REMARK  313  A    between atoms: _759  and  _760
REMARK  314  A    between atoms: _765  and  _767
REMARK  315  A    between atoms: _767  and  _768
REMARK  316  A    between atoms: _767  and  _770
REMARK  317  A    between atoms: _770  and  _771
REMARK  318  A    between atoms: _777  and  _779
REMARK  319  A    between atoms: _779  and  _780
REMARK  320  A    between atoms: _779  and  _782
REMARK  321  A    between atoms: _782  and  _783
REMARK  322  A    between atoms: _785  and  _787
REMARK  323  A    between atoms: _787  and  _788
REMARK  324  A    between atoms: _790  and  _792
REMARK  325  A    between atoms: _792  and  _793
REMARK  326  A    between atoms: _792  and  _795
REMARK  327  A    between atoms: _795  and  _796
REMARK  328  A    between atoms: _801  and  _802
REMARK  329  A    between atoms: _804  and  _806
REMARK  330  A    between atoms: _806  and  _807
REMARK  331  A    between atoms: _806  and  _809
REMARK  332  A    between atoms: _809  and  _810
REMARK  333  A    between atoms: _815  and  _816
REMARK  334  A    between atoms: _818  and  _820
REMARK  335  A    between atoms: _820  and  _821
REMARK  336  A    between atoms: _820  and  _823
REMARK  337  A    between atoms: _823  and  _824
REMARK  338  A    between atoms: _828  and  ZN_938
REMARK  339  A    between atoms: _829  and  _831
REMARK  340  A    between atoms: _831  and  _832
REMARK  341  A    between atoms: _831  and  _834
REMARK  342  A    between atoms: _834  and  _835
REMARK  343  A    between atoms: _835  and  _836
REMARK  344  A    between atoms: _839  and  _841
REMARK  345  A    between atoms: _841  and  _842
REMARK  346  A    between atoms: _841  and  _844
REMARK  347  A    between atoms: _844  and  _845
REMARK  348  A    between atoms: _845  and  _846
REMARK  349  A    between atoms: _846  and  _847
REMARK  350  A    between atoms: _856  and  _858
REMARK  351  A    between atoms: _858  and  _859
REMARK  352  A    between atoms: _858  and  _861
REMARK  353  A    between atoms: _861  and  _862
REMARK  354  A    between atoms: _867  and  _868
REMARK  355  A    between atoms: _870  and  _872
REMARK  356  A    between atoms: _872  and  _873
REMARK  357  A    between atoms: _872  and  _875
REMARK  358  A    between atoms: _875  and  _876
REMARK  359  A    between atoms: _878  and  _880
REMARK  360  A    between atoms: _880  and  _881
REMARK  361  A    between atoms: _880  and  _883
REMARK  362  A    between atoms: _883  and  _884
REMARK  363  A    between atoms: _889  and  _891
REMARK  364  A    between atoms: _891  and  _892
REMARK  365  A    between atoms: _891  and  _894
REMARK  366  A    between atoms: _894  and  _895
REMARK  367  A    between atoms: _900  and  _902
REMARK  368  A    between atoms: _902  and  _903
REMARK  369  A    between atoms: _902  and  _905
REMARK  370  A    between atoms: _905  and  _906
REMARK  371  A    between atoms: _906  and  _907
REMARK  372  A    between atoms: _907  and  _908
REMARK  373  A    between atoms: _908  and  _909
REMARK  374  A    between atoms: _913  and  _915
REMARK  375  A    between atoms: _915  and  _916
REMARK  376  A    between atoms: _915  and  _918
REMARK  377  A    between atoms: _918  and  _919
REMARK  378  A    between atoms: _924  and  _925
REMARK  379  A    between atoms: _927  and  _929
REMARK  380  A    between atoms: _929  and  _930
REMARK  381  A    between atoms: _933  and  _935
REMARK  382  A    between atoms: _935  and  _936
REMARK                            x       y       z     vdW  Elec       q    Type
REMARK                         _______ _______ _______ _____ _____    ______ ____
ROOT
ATOM      1  O   HOH     1       9.088  50.683  46.486  0.00  0.00    +0.000 OA
ENDROOT
TORSDOF 0
REMARK  Name = ../refined-set-2016/2xeg/2xeg_pocket.pdb
REMARK  382 active torsions:
REMARK  status: ('A' for Active; 'I' for Inactive)
REMARK    1  A    between atoms: _1  and  _3
REMARK    2  A    between atoms: _3  and  _4
REMARK    3  A    between atoms: _7  and  _9
REMARK    4  A    between atoms: _9  and  _10
REMARK    5  A    between atoms: _9  and  _12
REMARK    6  A    between atoms: _12  and  _13
REMARK    7  A    between atoms: _19  and  _21
REMARK    8  A    between atoms: _21  and  _22
REMARK    9  A    between atoms: _21  and  _24
REMARK   10  A    between atoms: _24  and  _25
REMARK   11  A    between atoms: _30  and  _31
REMARK   12  A    between atoms: _33  and  _35
REMARK   13  A    between atoms: _35  and  _36
REMARK   14  A    between atoms: _38  and  _40
REMARK   15  A    between atoms: _40  and  _41
REMARK   16  A    between atoms: _40  and  _43
REMARK   17  A    between atoms: _43  and  _44
REMARK   18  A    between atoms: _44  and  _45
REMARK   19  A    between atoms: _45  and  _46
REMARK   20  A    between atoms: _46  and  _47
REMARK   21  A    between atoms: _51  and  _53
REMARK   22  A    between atoms: _53  and  _54
REMARK   23  A    between atoms: _53  and  _56
REMARK   24  A    between atoms: _59  and  _61
REMARK   25  A    between atoms: _61  and  _62
REMARK   26  A    between atoms: _61  and  _64
REMARK   27  A    between atoms: _64  and  _65
REMARK   28  A    between atoms: _71  and  _73
REMARK   29  A    between atoms: _73  and  _74
REMARK   30  A    between atoms: _73  and  _76
REMARK   31  A    between atoms: _76  and  _77
REMARK   32  A    between atoms: _77  and  _78
REMARK   33  A    between atoms: _78  and  _79
REMARK   34  A    between atoms: _88  and  _90
REMARK   35  A    between atoms: _90  and  _91
REMARK   36  A    between atoms: _93  and  _95
REMARK   37  A    between atoms: _95  and  _96
REMARK   38  A    between atoms: _95  and  _98
REMARK   39  A    between atoms: _98  and  _99
REMARK   40  A    between atoms: _99  and  _100
REMARK   41  A    between atoms: _100  and  _101
REMARK   42  A    between atoms: _101  and  _102
REMARK   43  A    between atoms: _106  and  _108
REMARK   44  A    between atoms: _108  and  _109
REMARK   45  A    between atoms: _108  and  _111
REMARK   46  A    between atoms: _111  and  _112
REMARK   47  A    between atoms: _115  and  _117
REMARK   48  A    between atoms: _117  and  _118
REMARK   49  A    between atoms: _117  and  _120
REMARK   50  A    between atoms: _120  and  _121
REMARK   51  A    between atoms: _126  and  _127
REMARK   52  A    between atoms: _129  and  _131
REMARK   53  A    between atoms: _131  and  _132
REMARK   54  A    between atoms: _131  and  _134
REMARK   55  A    between atoms: _134  and  _135
REMARK   56  A    between atoms: _135  and  _136
REMARK   57  A    between atoms: _141  and  _143
REMARK   58  A    between atoms: _143  and  _144
REMARK   59  A    between atoms: _143  and  _146
REMARK   60  A    between atoms: _146  and  _147
REMARK   61  A    between atoms: _147  and  _148
REMARK   62  A    between atoms: _148  and  _149
REMARK   63  A    between atoms: _158  and  _160
REMARK   64  A    between atoms: _160  and  _161
REMARK   65  A    between atoms: _163  and  _165
REMARK   66  A    between atoms: _165  and  _166
REMARK   67  A    between atoms: _165  and  _168
REMARK   68  A    between atoms: _168  and  _169
REMARK   69  A    between atoms: _174  and  _176
REMARK   70  A    between atoms: _176  and  _177
REMARK   71  A    between atoms: _176  and  _179
REMARK   72  A    between atoms: _179  and  _180
REMARK   73  A    between atoms: _183  and  _185
REMARK   74  A    between atoms: _185  and  _186
REMARK   75  A    between atoms: _185  and  _188
REMARK   76  A    between atoms: _188  and  _189
REMARK   77  A    between atoms: _192  and  _194
REMARK   78  A    between atoms: _194  and  _195
REMARK   79  A    between atoms: _194  and  _197
REMARK   80  A    between atoms: _197  and  _198
REMARK   81  A    between atoms: _203  and  _205
REMARK   82  A    between atoms: _205  and  _206
REMARK   83  A    between atoms: _205  and  _208
REMARK   84  A    between atoms: _208  and  _209
REMARK   85  A    between atoms: _212  and  _214
REMARK   86  A    between atoms: _214  and  _215
REMARK   87  A    between atoms: _214  and  _217
REMARK   88  A    between atoms: _217  and  _218
REMARK   89  A    between atoms: _223  and  _225
REMARK   90  A    between atoms: _225  and  _226
REMARK   91  A    between atoms: _228  and  _230
REMARK   92  A    between atoms: _230  and  _231
REMARK   93  A    between atoms: _230  and  _233
REMARK   94  A    between atoms: _233  and  _234
REMARK   95  A    between atoms: _238  and  ZN_939
REMARK   96  A    between atoms: _239  and  _241
REMARK   97  A    between atoms: _241  and  _242
REMARK   98  A    between atoms: _241  and  _244
REMARK   99  A    between atoms: _244  and  _245
REMARK  100  A    between atoms: _248  and  _250
REMARK  101  A    between atoms: _250  and  _251
REMARK  102  A    between atoms: _250  and  _253
REMARK  103  A    between atoms: _253  and  _254
REMARK  104  A    between atoms: _264  and  _266
REMARK  105  A    between atoms: _266  and  _267
REMARK  106  A    between atoms: _266  and  _269
REMARK  107  A    between atoms: _269  and  _270
REMARK  108  A    between atoms: _273  and  _275
REMARK  109  A    between atoms: _275  and  _276
REMARK  110  A    between atoms: _275  and  _278
REMARK  111  A    between atoms: _278  and  _279
REMARK  112  A    between atoms: _279  and  _280
REMARK  113  A    between atoms: _279  and  _281
REMARK  114  A    between atoms: _280  and  ZN_939
REMARK  115  A    between atoms: _281  and  ZN_938
REMARK  116  A    between atoms: _283  and  _284
REMARK  117  A    between atoms: _289  and  _291
REMARK  118  A    between atoms: _291  and  _292
REMARK  119  A    between atoms: _295  and  _297
REMARK  120  A    between atoms: _297  and  _298
REMARK  121  A    between atoms: _297  and  _300
REMARK  122  A    between atoms: _300  and  _301
REMARK  123  A    between atoms: _301  and  _302
REMARK  124  A    between atoms: _305  and  _307
REMARK  125  A    between atoms: _307  and  _308
REMARK  126  A    between atoms: _307  and  _310
REMARK  127  A    between atoms: _310  and  _311
REMARK  128  A    between atoms: _311  and  _312
REMARK  129  A    between atoms: _312  and  _314
REMARK  130  A    between atoms: _314  and  ZN_938
REMARK  131  A    between atoms: _315  and  _317
REMARK  132  A    between atoms: _317  and  _318
REMARK  133  A    between atoms: _317  and  _320
REMARK  134  A    between atoms: _320  and  _321
REMARK  135  A    between atoms: _327  and  _329
REMARK  136  A    between atoms: _329  and  _330
REMARK  137  A    between atoms: _332  and  _334
REMARK  138  A    between atoms: _334  and  _335
REMARK  139  A    between atoms: _334  and  _337
REMARK  140  A    between atoms: _337  and  _338
REMARK  141  A    between atoms: _341  and  _343
REMARK  142  A    between atoms: _343  and  _344
REMARK  143  A    between atoms: _343  and  _346
REMARK  144  A    between atoms: _346  and  _347
REMARK  145  A    between atoms: _350  and  _352
REMARK  146  A    between atoms: _352  and  _353
REMARK  147  A    between atoms: _352  and  _355
REMARK  148  A    between atoms: _355  and  _356
REMARK  149  A    between atoms: _361  and  _363
REMARK  150  A    between atoms: _363  and  _364
REMARK  151  A    between atoms: _363  and  _366
REMARK  152  A    between atoms: _366  and  _367
REMARK  153  A    between atoms: _367  and  _369
REMARK  154  A    between atoms: _369  and  ZN_939
REMARK  155  A    between atoms: _370  and  _372
REMARK  156  A    between atoms: _372  and  _373
REMARK  157  A    between atoms: _372  and  _375
REMARK  158  A    between atoms: _375  and  _376
REMARK  159  A    between atoms: _378  and  _380
REMARK  160  A    between atoms: _380  and  _381
REMARK  161  A    between atoms: _380  and  _383
REMARK  162  A    between atoms: _383  and  _384
REMARK  163  A    between atoms: _386  and  _388
REMARK  164  A    between atoms: _388  and  _389
REMARK  165  A    between atoms: _388  and  _391
REMARK  166  A    between atoms: _391  and  _392
REMARK  167  A    between atoms: _395  and  _397
REMARK  168  A    between atoms: _397  and  _398
REMARK  169  A    between atoms: _397  and  _400
REMARK  170  A    between atoms: _400  and  _401
REMARK  171  A    between atoms: _401  and  _402
REMARK  172  A    between atoms: _405  and  _407
REMARK  173  A    between atoms: _407  and  _408
REMARK  174  A    between atoms: _407  and  _410
REMARK  175  A    between atoms: _410  and  _411
REMARK  176  A    between atoms: _416  and  _417
REMARK  177  A    between atoms: _419  and  _421
REMARK  178  A    between atoms: _421  and  _422
REMARK  179  A    between atoms: _421  and  _424
REMARK  180  A    between atoms: _424  and  _425
REMARK  181  A    between atoms: _428  and  _430
REMARK  182  A    between atoms: _430  and  _431
REMARK  183  A    between atoms: _430  and  _433
REMARK  184  A    between atoms: _433  and  _434
REMARK  185  A    between atoms: _437  and  _439
REMARK  186  A    between atoms: _439  and  _440
REMARK  187  A    between atoms: _439  and  _442
REMARK  188  A    between atoms: _442  and  _443
REMARK  189  A    between atoms: _443  and  _444
REMARK  190  A    between atoms: _444  and  _445
REMARK  191  A    between atoms: _454  and  _456
REMARK  192  A    between atoms: _456  and  _457
REMARK  193  A    between atoms: _456  and  _459
REMARK  194  A    between atoms: _462  and  _464
REMARK  195  A    between atoms: _464  and  _465
REMARK  196  A    between atoms: _464  and  _467
REMARK  197  A    between atoms: _467  and  _468
REMARK  198  A    between atoms: _471  and  _473
REMARK  199  A    between atoms: _473  and  _474
REMARK  200  A    between atoms: _473  and  _476
REMARK  201  A    between atoms: _476  and  _477
REMARK  202  A    between atoms: _487  and  _489
REMARK  203  A    between atoms: _489  and  _490
REMARK  204  A    between atoms: _489  and  _492
REMARK  205  A    between atoms: _492  and  _493
REMARK  206  A    between atoms: _493  and  _494
REMARK  207  A    between atoms: _494  and  _495
REMARK  208  A    between atoms: _495  and  _496
REMARK  209  A    between atoms: _500  and  _502
REMARK  210  A    between atoms: _502  and  _503
REMARK  211  A    between atoms: _502  and  _505
REMARK  212  A    between atoms: _505  and  _506
REMARK  213  A    between atoms: _509  and  _510
REMARK  214  A    between atoms: _516  and  _517
REMARK  215  A    between atoms: _522  and  _524
REMARK  216  A    between atoms: _524  and  _525
REMARK  217  A    between atoms: _524  and  _527
REMARK  218  A    between atoms: _527  and  _528
REMARK  219  A    between atoms: _528  and  _529
REMARK  220  A    between atoms: _529  and  _530
REMARK  221  A    between atoms: _539  and  _541
REMARK  222  A    between atoms: _541  and  _542
REMARK  223  A    between atoms: _541  and  _544
REMARK  224  A    between atoms: _544  and  _545
REMARK  225  A    between atoms: _548  and  _550
REMARK  226  A    between atoms: _550  and  _551
REMARK  227  A    between atoms: _550  and  _553
REMARK  228  A    between atoms: _553  and  _554
REMARK  229  A    between atoms: _556  and  _558
REMARK  230  A    between atoms: _558  and  _559
REMARK  231  A    between atoms: _558  and  _561
REMARK  232  A    between atoms: _561  and  _562
REMARK  233  A    between atoms: _562  and  _563
REMARK  234  A    between atoms: _563  and  _564
REMARK  235  A    between atoms: _564  and  _565
REMARK  236  A    between atoms: _569  and  _571
REMARK  237  A    between atoms: _571  and  _572
REMARK  238  A    between atoms: _571  and  _574
REMARK  239  A    between atoms: _574  and  _575
REMARK  240  A    between atoms: _578  and  _580
REMARK  241  A    between atoms: _580  and  _581
REMARK  242  A    between atoms: _583  and  _585
REMARK  243  A    between atoms: _585  and  _586
REMARK  244  A    between atoms: _585  and  _588
REMARK  245  A    between atoms: _588  and  _589
REMARK  246  A    between atoms: _591  and  _593
REMARK  247  A    between atoms: _593  and  _594
REMARK  248  A    between atoms: _596  and  _598
REMARK  249  A    between atoms: _598  and  _599
REMARK  250  A    between atoms: _598  and  _601
REMARK  251  A    between atoms: _601  and  _602
REMARK  252  A    between atoms: _607  and  _609
REMARK  253  A    between atoms: _609  and  _610
REMARK  254  A    between atoms: _609  and  _612
REMARK  255  A    between atoms: _612  and  _613
REMARK  256  A    between atoms: _616  and  _618
REMARK  257  A    between atoms: _618  and  _619
REMARK  258  A    between atoms: _618  and  _621
REMARK  259  A    between atoms: _621  and  _622
REMARK  260  A    between atoms: _628  and  _630
REMARK  261  A    between atoms: _630  and  _631
REMARK  262  A    between atoms: _630  and  _633
REMARK  263  A    between atoms: _633  and  _634
REMARK  264  A    between atoms: _634  and  _635
REMARK  265  A    between atoms: _638  and  _640
REMARK  266  A    between atoms: _640  and  _641
REMARK  267  A    between atoms: _640  and  _643
REMARK  268  A    between atoms: _643  and  _644
REMARK  269  A    between atoms: _644  and  _645
REMARK  270  A    between atoms: _645  and  _646
REMARK  271  A    between atoms: _655  and  _657
REMARK  272  A    between atoms: _657  and  _658
REMARK  273  A    between atoms: _657  and  _660
REMARK  274  A    between atoms: _660  and  _661
REMARK  275  A    between atoms: _661  and  _662
REMARK  276  A    between atoms: _662  and  _663
REMARK  277  A    between atoms: _672  and  _674
REMARK  278  A    between atoms: _674  and  _675
REMARK  279  A    between atoms: _674  and  _677
REMARK  280  A    between atoms: _677  and  _678
REMARK  281  A    between atoms: _683  and  _684
REMARK  282  A    between atoms: _686  and  _688
REMARK  283  A    between atoms: _688  and  _689
REMARK  284  A    between atoms: _688  and  _691
REMARK  285  A    between atoms: _691  and  _692
REMARK  286  A    between atoms: _695  and  _697
REMARK  287  A    between atoms: _697  and  _698
REMARK  288  A    between atoms: _697  and  _700
REMARK  289  A    between atoms: _700  and  _701
REMARK  290  A    between atoms: _701  and  _702
REMARK  291  A    between atoms: _702  and  _703
REMARK  292  A    between atoms: _703  and  _704
REMARK  293  A    between atoms: _708  and  _710
REMARK  294  A    between atoms: _710  and  _711
REMARK  295  A    between atoms: _710  and  _713
REMARK  296  A    between atoms: _713  and  _714
REMARK  297  A    between atoms: _719  and  _721
REMARK  298  A    between atoms: _721  and  _722
REMARK  299  A    between atoms: _721  and  _724
REMARK  300  A    between atoms: _724  and  _725
REMARK  301  A    between atoms: _735  and  _737
REMARK  302  A    between atoms: _737  and  _738
REMARK  303  A    between atoms: _737  and  _740
REMARK  304  A    between atoms: _740  and  _741
REMARK  305  A    between atoms: _741  and  _742
REMARK  306  A    between atoms: _745  and  _747
REMARK  307  A    between atoms: _747  and  _748
REMARK  308  A    between atoms: _747  and  _750
REMARK  309  A    between atoms: _750  and  _751
REMARK  310  A    between atoms: _754  and  _756
REMARK  311  A    between atoms: _756  and  _757
REMARK  312  A    between atoms: _756  and  _759
REMARK  313  A    between atoms: _759  and  _760
REMARK  314  A    between atoms: _765  and  _767
REMARK  315  A    between atoms: _767  and  _768
REMARK  316  A    between atoms: _767  and  _770
REMARK  317  A    between atoms: _770  and  _771
REMARK  318  A    between atoms: _777  and  _779
REMARK  319  A    between atoms: _779  and  _780
REMARK  320  A    between atoms: _779  and  _782
REMARK  321  A    between atoms: _782  and  _783
REMARK  322  A    between atoms: _785  and  _787
REMARK  323  A    between atoms: _787  and  _788
REMARK  324  A    between atoms: _790  and  _792
REMARK  325  A    between atoms: _792  and  _793
REMARK  326  A    between atoms: _792  and  _795
REMARK  327  A    between atoms: _795  and  _796
REMARK  328  A    between atoms: _801  and  _802
REMARK  329  A    between atoms: _804  and  _806
REMARK  330  A    between atoms: _806  and  _807
REMARK  331  A    between atoms: _806  and  _809
REMARK  332  A    between atoms: _809  and  _810
REMARK  333  A    between atoms: _815  and  _816
REMARK  334  A    between atoms: _818  and  _820
REMARK  335  A    between atoms: _820  and  _821
REMARK  336  A    between atoms: _820  and  _823
REMARK  337  A    between atoms: _823  and  _824
REMARK  338  A    between atoms: _828  and  ZN_938
REMARK  339  A    between atoms: _829  and  _831
REMARK  340  A    between atoms: _831  and  _832
REMARK  341  A    between atoms: _831  and  _834
REMARK  342  A    between atoms: _834  and  _835
REMARK  343  A    between atoms: _835  and  _836
REMARK  344  A    between atoms: _839  and  _841
REMARK  345  A    between atoms: _841  and  _842
REMARK  346  A    between atoms: _841  and  _844
REMARK  347  A    between atoms: _844  and  _845
REMARK  348  A    between atoms: _845  and  _846
REMARK  349  A    between atoms: _846  and  _847
REMARK  350  A    between atoms: _856  and  _858
REMARK  351  A    between atoms: _858  and  _859
REMARK  352  A    between atoms: _858  and  _861
REMARK  353  A    between atoms: _861  and  _862
REMARK  354  A    between atoms: _867  and  _868
REMARK  355  A    between atoms: _870  and  _872
REMARK  356  A    between atoms: _872  and  _873
REMARK  357  A    between atoms: _872  and  _875
REMARK  358  A    between atoms: _875  and  _876
REMARK  359  A    between atoms: _878  and  _880
REMARK  360  A    between atoms: _880  and  _881
REMARK  361  A    between atoms: _880  and  _883
REMARK  362  A    between atoms: _883  and  _884
REMARK  363  A    between atoms: _889  and  _891
REMARK  364  A    between atoms: _891  and  _892
REMARK  365  A    between atoms: _891  and  _894
REMARK  366  A    between atoms: _894  and  _895
REMARK  367  A    between atoms: _900  and  _902
REMARK  368  A    between atoms: _902  and  _903
REMARK  369  A    between atoms: _902  and  _905
REMARK  370  A    between atoms: _905  and  _906
REMARK  371  A    between atoms: _906  and  _907
REMARK  372  A    between atoms: _907  and  _908
REMARK  373  A    between atoms: _908  and  _909
REMARK  374  A    between atoms: _913  and  _915
REMARK  375  A    between atoms: _915  and  _916
REMARK  376  A    between atoms: _915  and  _918
REMARK  377  A    between atoms: _918  and  _919
REMARK  378  A    between atoms: _924  and  _925
REMARK  379  A    between atoms: _927  and  _929
REMARK  380  A    between atoms: _929  and  _930
REMARK  381  A    between atoms: _933  and  _935
REMARK  382  A    between atoms: _935  and  _936
REMARK                            x       y       z     vdW  Elec       q    Type
REMARK                         _______ _______ _______ _____ _____    ______ ____
ROOT
ATOM      1  O   HOH     1      21.824  47.553  52.279  0.00  0.00    +0.000 OA
ENDROOT
TORSDOF 0
REMARK  Name = ../refined-set-2016/2xeg/2xeg_pocket.pdb
REMARK  382 active torsions:
REMARK  status: ('A' for Active; 'I' for Inactive)
REMARK    1  A    between atoms: _1  and  _3
REMARK    2  A    between atoms: _3  and  _4
REMARK    3  A    between atoms: _7  and  _9
REMARK    4  A    between atoms: _9  and  _10
REMARK    5  A    between atoms: _9  and  _12
REMARK    6  A    between atoms: _12  and  _13
REMARK    7  A    between atoms: _19  and  _21
REMARK    8  A    between atoms: _21  and  _22
REMARK    9  A    between atoms: _21  and  _24
REMARK   10  A    between atoms: _24  and  _25
REMARK   11  A    between atoms: _30  and  _31
REMARK   12  A    between atoms: _33  and  _35
REMARK   13  A    between atoms: _35  and  _36
REMARK   14  A    between atoms: _38  and  _40
REMARK   15  A    between atoms: _40  and  _41
REMARK   16  A    between atoms: _40  and  _43
REMARK   17  A    between atoms: _43  and  _44
REMARK   18  A    between atoms: _44  and  _45
REMARK   19  A    between atoms: _45  and  _46
REMARK   20  A    between atoms: _46  and  _47
REMARK   21  A    between atoms: _51  and  _53
REMARK   22  A    between atoms: _53  and  _54
REMARK   23  A    between atoms: _53  and  _56
REMARK   24  A    between atoms: _59  and  _61
REMARK   25  A    between atoms: _61  and  _62
REMARK   26  A    between atoms: _61  and  _64
REMARK   27  A    between atoms: _64  and  _65
REMARK   28  A    between atoms: _71  and  _73
REMARK   29  A    between atoms: _73  and  _74
REMARK   30  A    between atoms: _73  and  _76
REMARK   31  A    between atoms: _76  and  _77
REMARK   32  A    between atoms: _77  and  _78
REMARK   33  A    between atoms: _78  and  _79
REMARK   34  A    between atoms: _88  and  _90
REMARK   35  A    between atoms: _90  and  _91
REMARK   36  A    between atoms: _93  and  _95
REMARK   37  A    between atoms: _95  and  _96
REMARK   38  A    between atoms: _95  and  _98
REMARK   39  A    between atoms: _98  and  _99
REMARK   40  A    between atoms: _99  and  _100
REMARK   41  A    between atoms: _100  and  _101
REMARK   42  A    between atoms: _101  and  _102
REMARK   43  A    between atoms: _106  and  _108
REMARK   44  A    between atoms: _108  and  _109
REMARK   45  A    between atoms: _108  and  _111
REMARK   46  A    between atoms: _111  and  _112
REMARK   47  A    between atoms: _115  and  _117
REMARK   48  A    between atoms: _117  and  _118
REMARK   49  A    between atoms: _117  and  _120
REMARK   50  A    between atoms: _120  and  _121
REMARK   51  A    between atoms: _126  and  _127
REMARK   52  A    between atoms: _129  and  _131
REMARK   53  A    between atoms: _131  and  _132
REMARK   54  A    between atoms: _131  and  _134
REMARK   55  A    between atoms: _134  and  _135
REMARK   56  A    between atoms: _135  and  _136
REMARK   57  A    between atoms: _141  and  _143
REMARK   58  A    between atoms: _143  and  _144
REMARK   59  A    between atoms: _143  and  _146
REMARK   60  A    between atoms: _146  and  _147
REMARK   61  A    between atoms: _147  and  _148
REMARK   62  A    between atoms: _148  and  _149
REMARK   63  A    between atoms: _158  and  _160
REMARK   64  A    between atoms: _160  and  _161
REMARK   65  A    between atoms: _163  and  _165
REMARK   66  A    between atoms: _165  and  _166
REMARK   67  A    between atoms: _165  and  _168
REMARK   68  A    between atoms: _168  and  _169
REMARK   69  A    between atoms: _174  and  _176
REMARK   70  A    between atoms: _176  and  _177
REMARK   71  A    between atoms: _176  and  _179
REMARK   72  A    between atoms: _179  and  _180
REMARK   73  A    between atoms: _183  and  _185
REMARK   74  A    between atoms: _185  and  _186
REMARK   75  A    between atoms: _185  and  _188
REMARK   76  A    between atoms: _188  and  _189
REMARK   77  A    between atoms: _192  and  _194
REMARK   78  A    between atoms: _194  and  _195
REMARK   79  A    between atoms: _194  and  _197
REMARK   80  A    between atoms: _197  and  _198
REMARK   81  A    between atoms: _203  and  _205
REMARK   82  A    between atoms: _205  and  _206
REMARK   83  A    between atoms: _205  and  _208
REMARK   84  A    between atoms: _208  and  _209
REMARK   85  A    between atoms: _212  and  _214
REMARK   86  A    between atoms: _214  and  _215
REMARK   87  A    between atoms: _214  and  _217
REMARK   88  A    between atoms: _217  and  _218
REMARK   89  A    between atoms: _223  and  _225
REMARK   90  A    between atoms: _225  and  _226
REMARK   91  A    between atoms: _228  and  _230
REMARK   92  A    between atoms: _230  and  _231
REMARK   93  A    between atoms: _230  and  _233
REMARK   94  A    between atoms: _233  and  _234
REMARK   95  A    between atoms: _238  and  ZN_939
REMARK   96  A    between atoms: _239  and  _241
REMARK   97  A    between atoms: _241  and  _242
REMARK   98  A    between atoms: _241  and  _244
REMARK   99  A    between atoms: _244  and  _245
REMARK  100  A    between atoms: _248  and  _250
REMARK  101  A    between atoms: _250  and  _251
REMARK  102  A    between atoms: _250  and  _253
REMARK  103  A    between atoms: _253  and  _254
REMARK  104  A    between atoms: _264  and  _266
REMARK  105  A    between atoms: _266  and  _267
REMARK  106  A    between atoms: _266  and  _269
REMARK  107  A    between atoms: _269  and  _270
REMARK  108  A    between atoms: _273  and  _275
REMARK  109  A    between atoms: _275  and  _276
REMARK  110  A    between atoms: _275  and  _278
REMARK  111  A    between atoms: _278  and  _279
REMARK  112  A    between atoms: _279  and  _280
REMARK  113  A    between atoms: _279  and  _281
REMARK  114  A    between atoms: _280  and  ZN_939
REMARK  115  A    between atoms: _281  and  ZN_938
REMARK  116  A    between atoms: _283  and  _284
REMARK  117  A    between atoms: _289  and  _291
REMARK  118  A    between atoms: _291  and  _292
REMARK  119  A    between atoms: _295  and  _297
REMARK  120  A    between atoms: _297  and  _298
REMARK  121  A    between atoms: _297  and  _300
REMARK  122  A    between atoms: _300  and  _301
REMARK  123  A    between atoms: _301  and  _302
REMARK  124  A    between atoms: _305  and  _307
REMARK  125  A    between atoms: _307  and  _308
REMARK  126  A    between atoms: _307  and  _310
REMARK  127  A    between atoms: _310  and  _311
REMARK  128  A    between atoms: _311  and  _312
REMARK  129  A    between atoms: _312  and  _314
REMARK  130  A    between atoms: _314  and  ZN_938
REMARK  131  A    between atoms: _315  and  _317
REMARK  132  A    between atoms: _317  and  _318
REMARK  133  A    between atoms: _317  and  _320
REMARK  134  A    between atoms: _320  and  _321
REMARK  135  A    between atoms: _327  and  _329
REMARK  136  A    between atoms: _329  and  _330
REMARK  137  A    between atoms: _332  and  _334
REMARK  138  A    between atoms: _334  and  _335
REMARK  139  A    between atoms: _334  and  _337
REMARK  140  A    between atoms: _337  and  _338
REMARK  141  A    between atoms: _341  and  _343
REMARK  142  A    between atoms: _343  and  _344
REMARK  143  A    between atoms: _343  and  _346
REMARK  144  A    between atoms: _346  and  _347
REMARK  145  A    between atoms: _350  and  _352
REMARK  146  A    between atoms: _352  and  _353
REMARK  147  A    between atoms: _352  and  _355
REMARK  148  A    between atoms: _355  and  _356
REMARK  149  A    between atoms: _361  and  _363
REMARK  150  A    between atoms: _363  and  _364
REMARK  151  A    between atoms: _363  and  _366
REMARK  152  A    between atoms: _366  and  _367
REMARK  153  A    between atoms: _367  and  _369
REMARK  154  A    between atoms: _369  and  ZN_939
REMARK  155  A    between atoms: _370  and  _372
REMARK  156  A    between atoms: _372  and  _373
REMARK  157  A    between atoms: _372  and  _375
REMARK  158  A    between atoms: _375  and  _376
REMARK  159  A    between atoms: _378  and  _380
REMARK  160  A    between atoms: _380  and  _381
REMARK  161  A    between atoms: _380  and  _383
REMARK  162  A    between atoms: _383  and  _384
REMARK  163  A    between atoms: _386  and  _388
REMARK  164  A    between atoms: _388  and  _389
REMARK  165  A    between atoms: _388  and  _391
REMARK  166  A    between atoms: _391  and  _392
REMARK  167  A    between atoms: _395  and  _397
REMARK  168  A    between atoms: _397  and  _398
REMARK  169  A    between atoms: _397  and  _400
REMARK  170  A    between atoms: _400  and  _401
REMARK  171  A    between atoms: _401  and  _402
REMARK  172  A    between atoms: _405  and  _407
REMARK  173  A    between atoms: _407  and  _408
REMARK  174  A    between atoms: _407  and  _410
REMARK  175  A    between atoms: _410  and  _411
REMARK  176  A    between atoms: _416  and  _417
REMARK  177  A    between atoms: _419  and  _421
REMARK  178  A    between atoms: _421  and  _422
REMARK  179  A    between atoms: _421  and  _424
REMARK  180  A    between atoms: _424  and  _425
REMARK  181  A    between atoms: _428  and  _430
REMARK  182  A    between atoms: _430  and  _431
REMARK  183  A    between atoms: _430  and  _433
REMARK  184  A    between atoms: _433  and  _434
REMARK  185  A    between atoms: _437  and  _439
REMARK  186  A    between atoms: _439  and  _440
REMARK  187  A    between atoms: _439  and  _442
REMARK  188  A    between atoms: _442  and  _443
REMARK  189  A    between atoms: _443  and  _444
REMARK  190  A    between atoms: _444  and  _445
REMARK  191  A    between atoms: _454  and  _456
REMARK  192  A    between atoms: _456  and  _457
REMARK  193  A    between atoms: _456  and  _459
REMARK  194  A    between atoms: _462  and  _464
REMARK  195  A    between atoms: _464  and  _465
REMARK  196  A    between atoms: _464  and  _467
REMARK  197  A    between atoms: _467  and  _468
REMARK  198  A    between atoms: _471  and  _473
REMARK  199  A    between atoms: _473  and  _474
REMARK  200  A    between atoms: _473  and  _476
REMARK  201  A    between atoms: _476  and  _477
REMARK  202  A    between atoms: _487  and  _489
REMARK  203  A    between atoms: _489  and  _490
REMARK  204  A    between atoms: _489  and  _492
REMARK  205  A    between atoms: _492  and  _493
REMARK  206  A    between atoms: _493  and  _494
REMARK  207  A    between atoms: _494  and  _495
REMARK  208  A    between atoms: _495  and  _496
REMARK  209  A    between atoms: _500  and  _502
REMARK  210  A    between atoms: _502  and  _503
REMARK  211  A    between atoms: _502  and  _505
REMARK  212  A    between atoms: _505  and  _506
REMARK  213  A    between atoms: _509  and  _510
REMARK  214  A    between atoms: _516  and  _517
REMARK  215  A    between atoms: _522  and  _524
REMARK  216  A    between atoms: _524  and  _525
REMARK  217  A    between atoms: _524  and  _527
REMARK  218  A    between atoms: _527  and  _528
REMARK  219  A    between atoms: _528  and  _529
REMARK  220  A    between atoms: _529  and  _530
REMARK  221  A    between atoms: _539  and  _541
REMARK  222  A    between atoms: _541  and  _542
REMARK  223  A    between atoms: _541  and  _544
REMARK  224  A    between atoms: _544  and  _545
REMARK  225  A    between atoms: _548  and  _550
REMARK  226  A    between atoms: _550  and  _551
REMARK  227  A    between atoms: _550  and  _553
REMARK  228  A    between atoms: _553  and  _554
REMARK  229  A    between atoms: _556  and  _558
REMARK  230  A    between atoms: _558  and  _559
REMARK  231  A    between atoms: _558  and  _561
REMARK  232  A    between atoms: _561  and  _562
REMARK  233  A    between atoms: _562  and  _563
REMARK  234  A    between atoms: _563  and  _564
REMARK  235  A    between atoms: _564  and  _565
REMARK  236  A    between atoms: _569  and  _571
REMARK  237  A    between atoms: _571  and  _572
REMARK  238  A    between atoms: _571  and  _574
REMARK  239  A    between atoms: _574  and  _575
REMARK  240  A    between atoms: _578  and  _580
REMARK  241  A    between atoms: _580  and  _581
REMARK  242  A    between atoms: _583  and  _585
REMARK  243  A    between atoms: _585  and  _586
REMARK  244  A    between atoms: _585  and  _588
REMARK  245  A    between atoms: _588  and  _589
REMARK  246  A    between atoms: _591  and  _593
REMARK  247  A    between atoms: _593  and  _594
REMARK  248  A    between atoms: _596  and  _598
REMARK  249  A    between atoms: _598  and  _599
REMARK  250  A    between atoms: _598  and  _601
REMARK  251  A    between atoms: _601  and  _602
REMARK  252  A    between atoms: _607  and  _609
REMARK  253  A    between atoms: _609  and  _610
REMARK  254  A    between atoms: _609  and  _612
REMARK  255  A    between atoms: _612  and  _613
REMARK  256  A    between atoms: _616  and  _618
REMARK  257  A    between atoms: _618  and  _619
REMARK  258  A    between atoms: _618  and  _621
REMARK  259  A    between atoms: _621  and  _622
REMARK  260  A    between atoms: _628  and  _630
REMARK  261  A    between atoms: _630  and  _631
REMARK  262  A    between atoms: _630  and  _633
REMARK  263  A    between atoms: _633  and  _634
REMARK  264  A    between atoms: _634  and  _635
REMARK  265  A    between atoms: _638  and  _640
REMARK  266  A    between atoms: _640  and  _641
REMARK  267  A    between atoms: _640  and  _643
REMARK  268  A    between atoms: _643  and  _644
REMARK  269  A    between atoms: _644  and  _645
REMARK  270  A    between atoms: _645  and  _646
REMARK  271  A    between atoms: _655  and  _657
REMARK  272  A    between atoms: _657  and  _658
REMARK  273  A    between atoms: _657  and  _660
REMARK  274  A    between atoms: _660  and  _661
REMARK  275  A    between atoms: _661  and  _662
REMARK  276  A    between atoms: _662  and  _663
REMARK  277  A    between atoms: _672  and  _674
REMARK  278  A    between atoms: _674  and  _675
REMARK  279  A    between atoms: _674  and  _677
REMARK  280  A    between atoms: _677  and  _678
REMARK  281  A    between atoms: _683  and  _684
REMARK  282  A    between atoms: _686  and  _688
REMARK  283  A    between atoms: _688  and  _689
REMARK  284  A    between atoms: _688  and  _691
REMARK  285  A    between atoms: _691  and  _692
REMARK  286  A    between atoms: _695  and  _697
REMARK  287  A    between atoms: _697  and  _698
REMARK  288  A    between atoms: _697  and  _700
REMARK  289  A    between atoms: _700  and  _701
REMARK  290  A    between atoms: _701  and  _702
REMARK  291  A    between atoms: _702  and  _703
REMARK  292  A    between atoms: _703  and  _704
REMARK  293  A    between atoms: _708  and  _710
REMARK  294  A    between atoms: _710  and  _711
REMARK  295  A    between atoms: _710  and  _713
REMARK  296  A    between atoms: _713  and  _714
REMARK  297  A    between atoms: _719  and  _721
REMARK  298  A    between atoms: _721  and  _722
REMARK  299  A    between atoms: _721  and  _724
REMARK  300  A    between atoms: _724  and  _725
REMARK  301  A    between atoms: _735  and  _737
REMARK  302  A    between atoms: _737  and  _738
REMARK  303  A    between atoms: _737  and  _740
REMARK  304  A    between atoms: _740  and  _741
REMARK  305  A    between atoms: _741  and  _742
REMARK  306  A    between atoms: _745  and  _747
REMARK  307  A    between atoms: _747  and  _748
REMARK  308  A    between atoms: _747  and  _750
REMARK  309  A    between atoms: _750  and  _751
REMARK  310  A    between atoms: _754  and  _756
REMARK  311  A    between atoms: _756  and  _757
REMARK  312  A    between atoms: _756  and  _759
REMARK  313  A    between atoms: _759  and  _760
REMARK  314  A    between atoms: _765  and  _767
REMARK  315  A    between atoms: _767  and  _768
REMARK  316  A    between atoms: _767  and  _770
REMARK  317  A    between atoms: _770  and  _771
REMARK  318  A    between atoms: _777  and  _779
REMARK  319  A    between atoms: _779  and  _780
REMARK  320  A    between atoms: _779  and  _782
REMARK  321  A    between atoms: _782  and  _783
REMARK  322  A    between atoms: _785  and  _787
REMARK  323  A    between atoms: _787  and  _788
REMARK  324  A    between atoms: _790  and  _792
REMARK  325  A    between atoms: _792  and  _793
REMARK  326  A    between atoms: _792  and  _795
REMARK  327  A    between atoms: _795  and  _796
REMARK  328  A    between atoms: _801  and  _802
REMARK  329  A    between atoms: _804  and  _806
REMARK  330  A    between atoms: _806  and  _807
REMARK  331  A    between atoms: _806  and  _809
REMARK  332  A    between atoms: _809  and  _810
REMARK  333  A    between atoms: _815  and  _816
REMARK  334  A    between atoms: _818  and  _820
REMARK  335  A    between atoms: _820  and  _821
REMARK  336  A    between atoms: _820  and  _823
REMARK  337  A    between atoms: _823  and  _824
REMARK  338  A    between atoms: _828  and  ZN_938
REMARK  339  A    between atoms: _829  and  _831
REMARK  340  A    between atoms: _831  and  _832
REMARK  341  A    between atoms: _831  and  _834
REMARK  342  A    between atoms: _834  and  _835
REMARK  343  A    between atoms: _835  and  _836
REMARK  344  A    between atoms: _839  and  _841
REMARK  345  A    between atoms: _841  and  _842
REMARK  346  A    between atoms: _841  and  _844
REMARK  347  A    between atoms: _844  and  _845
REMARK  348  A    between atoms: _845  and  _846
REMARK  349  A    between atoms: _846  and  _847
REMARK  350  A    between atoms: _856  and  _858
REMARK  351  A    between atoms: _858  and  _859
REMARK  352  A    between atoms: _858  and  _861
REMARK  353  A    between atoms: _861  and  _862
REMARK  354  A    between atoms: _867  and  _868
REMARK  355  A    between atoms: _870  and  _872
REMARK  356  A    between atoms: _872  and  _873
REMARK  357  A    between atoms: _872  and  _875
REMARK  358  A    between atoms: _875  and  _876
REMARK  359  A    between atoms: _878  and  _880
REMARK  360  A    between atoms: _880  and  _881
REMARK  361  A    between atoms: _880  and  _883
REMARK  362  A    between atoms: _883  and  _884
REMARK  363  A    between atoms: _889  and  _891
REMARK  364  A    between atoms: _891  and  _892
REMARK  365  A    between atoms: _891  and  _894
REMARK  366  A    between atoms: _894  and  _895
REMARK  367  A    between atoms: _900  and  _902
REMARK  368  A    between atoms: _902  and  _903
REMARK  369  A    between atoms: _902  and  _905
REMARK  370  A    between atoms: _905  and  _906
REMARK  371  A    between atoms: _906  and  _907
REMARK  372  A    between atoms: _907  and  _908
REMARK  373  A    between atoms: _908  and  _909
REMARK  374  A    between atoms: _913  and  _915
REMARK  375  A    between atoms: _915  and  _916
REMARK  376  A    between atoms: _915  and  _918
REMARK  377  A    between atoms: _918  and  _919
REMARK  378  A    between atoms: _924  and  _925
REMARK  379  A    between atoms: _927  and  _929
REMARK  380  A    between atoms: _929  and  _930
REMARK  381  A    between atoms: _933  and  _935
REMARK  382  A    between atoms: _935  and  _936
REMARK                            x       y       z     vdW  Elec       q    Type
REMARK                         _______ _______ _______ _____ _____    ______ ____
ROOT
ATOM      1  O   HOH     1      26.448  42.241  40.662  0.00  0.00    +0.000 OA
ENDROOT
TORSDOF 0
REMARK  Name = ../refined-set-2016/2xeg/2xeg_pocket.pdb
REMARK  382 active torsions:
REMARK  status: ('A' for Active; 'I' for Inactive)
REMARK    1  A    between atoms: _1  and  _3
REMARK    2  A    between atoms: _3  and  _4
REMARK    3  A    between atoms: _7  and  _9
REMARK    4  A    between atoms: _9  and  _10
REMARK    5  A    between atoms: _9  and  _12
REMARK    6  A    between atoms: _12  and  _13
REMARK    7  A    between atoms: _19  and  _21
REMARK    8  A    between atoms: _21  and  _22
REMARK    9  A    between atoms: _21  and  _24
REMARK   10  A    between atoms: _24  and  _25
REMARK   11  A    between atoms: _30  and  _31
REMARK   12  A    between atoms: _33  and  _35
REMARK   13  A    between atoms: _35  and  _36
REMARK   14  A    between atoms: _38  and  _40
REMARK   15  A    between atoms: _40  and  _41
REMARK   16  A    between atoms: _40  and  _43
REMARK   17  A    between atoms: _43  and  _44
REMARK   18  A    between atoms: _44  and  _45
REMARK   19  A    between atoms: _45  and  _46
REMARK   20  A    between atoms: _46  and  _47
REMARK   21  A    between atoms: _51  and  _53
REMARK   22  A    between atoms: _53  and  _54
REMARK   23  A    between atoms: _53  and  _56
REMARK   24  A    between atoms: _59  and  _61
REMARK   25  A    between atoms: _61  and  _62
REMARK   26  A    between atoms: _61  and  _64
REMARK   27  A    between atoms: _64  and  _65
REMARK   28  A    between atoms: _71  and  _73
REMARK   29  A    between atoms: _73  and  _74
REMARK   30  A    between atoms: _73  and  _76
REMARK   31  A    between atoms: _76  and  _77
REMARK   32  A    between atoms: _77  and  _78
REMARK   33  A    between atoms: _78  and  _79
REMARK   34  A    between atoms: _88  and  _90
REMARK   35  A    between atoms: _90  and  _91
REMARK   36  A    between atoms: _93  and  _95
REMARK   37  A    between atoms: _95  and  _96
REMARK   38  A    between atoms: _95  and  _98
REMARK   39  A    between atoms: _98  and  _99
REMARK   40  A    between atoms: _99  and  _100
REMARK   41  A    between atoms: _100  and  _101
REMARK   42  A    between atoms: _101  and  _102
REMARK   43  A    between atoms: _106  and  _108
REMARK   44  A    between atoms: _108  and  _109
REMARK   45  A    between atoms: _108  and  _111
REMARK   46  A    between atoms: _111  and  _112
REMARK   47  A    between atoms: _115  and  _117
REMARK   48  A    between atoms: _117  and  _118
REMARK   49  A    between atoms: _117  and  _120
REMARK   50  A    between atoms: _120  and  _121
REMARK   51  A    between atoms: _126  and  _127
REMARK   52  A    between atoms: _129  and  _131
REMARK   53  A    between atoms: _131  and  _132
REMARK   54  A    between atoms: _131  and  _134
REMARK   55  A    between atoms: _134  and  _135
REMARK   56  A    between atoms: _135  and  _136
REMARK   57  A    between atoms: _141  and  _143
REMARK   58  A    between atoms: _143  and  _144
REMARK   59  A    between atoms: _143  and  _146
REMARK   60  A    between atoms: _146  and  _147
REMARK   61  A    between atoms: _147  and  _148
REMARK   62  A    between atoms: _148  and  _149
REMARK   63  A    between atoms: _158  and  _160
REMARK   64  A    between atoms: _160  and  _161
REMARK   65  A    between atoms: _163  and  _165
REMARK   66  A    between atoms: _165  and  _166
REMARK   67  A    between atoms: _165  and  _168
REMARK   68  A    between atoms: _168  and  _169
REMARK   69  A    between atoms: _174  and  _176
REMARK   70  A    between atoms: _176  and  _177
REMARK   71  A    between atoms: _176  and  _179
REMARK   72  A    between atoms: _179  and  _180
REMARK   73  A    between atoms: _183  and  _185
REMARK   74  A    between atoms: _185  and  _186
REMARK   75  A    between atoms: _185  and  _188
REMARK   76  A    between atoms: _188  and  _189
REMARK   77  A    between atoms: _192  and  _194
REMARK   78  A    between atoms: _194  and  _195
REMARK   79  A    between atoms: _194  and  _197
REMARK   80  A    between atoms: _197  and  _198
REMARK   81  A    between atoms: _203  and  _205
REMARK   82  A    between atoms: _205  and  _206
REMARK   83  A    between atoms: _205  and  _208
REMARK   84  A    between atoms: _208  and  _209
REMARK   85  A    between atoms: _212  and  _214
REMARK   86  A    between atoms: _214  and  _215
REMARK   87  A    between atoms: _214  and  _217
REMARK   88  A    between atoms: _217  and  _218
REMARK   89  A    between atoms: _223  and  _225
REMARK   90  A    between atoms: _225  and  _226
REMARK   91  A    between atoms: _228  and  _230
REMARK   92  A    between atoms: _230  and  _231
REMARK   93  A    between atoms: _230  and  _233
REMARK   94  A    between atoms: _233  and  _234
REMARK   95  A    between atoms: _238  and  ZN_939
REMARK   96  A    between atoms: _239  and  _241
REMARK   97  A    between atoms: _241  and  _242
REMARK   98  A    between atoms: _241  and  _244
REMARK   99  A    between atoms: _244  and  _245
REMARK  100  A    between atoms: _248  and  _250
REMARK  101  A    between atoms: _250  and  _251
REMARK  102  A    between atoms: _250  and  _253
REMARK  103  A    between atoms: _253  and  _254
REMARK  104  A    between atoms: _264  and  _266
REMARK  105  A    between atoms: _266  and  _267
REMARK  106  A    between atoms: _266  and  _269
REMARK  107  A    between atoms: _269  and  _270
REMARK  108  A    between atoms: _273  and  _275
REMARK  109  A    between atoms: _275  and  _276
REMARK  110  A    between atoms: _275  and  _278
REMARK  111  A    between atoms: _278  and  _279
REMARK  112  A    between atoms: _279  and  _280
REMARK  113  A    between atoms: _279  and  _281
REMARK  114  A    between atoms: _280  and  ZN_939
REMARK  115  A    between atoms: _281  and  ZN_938
REMARK  116  A    between atoms: _283  and  _284
REMARK  117  A    between atoms: _289  and  _291
REMARK  118  A    between atoms: _291  and  _292
REMARK  119  A    between atoms: _295  and  _297
REMARK  120  A    between atoms: _297  and  _298
REMARK  121  A    between atoms: _297  and  _300
REMARK  122  A    between atoms: _300  and  _301
REMARK  123  A    between atoms: _301  and  _302
REMARK  124  A    between atoms: _305  and  _307
REMARK  125  A    between atoms: _307  and  _308
REMARK  126  A    between atoms: _307  and  _310
REMARK  127  A    between atoms: _310  and  _311
REMARK  128  A    between atoms: _311  and  _312
REMARK  129  A    between atoms: _312  and  _314
REMARK  130  A    between atoms: _314  and  ZN_938
REMARK  131  A    between atoms: _315  and  _317
REMARK  132  A    between atoms: _317  and  _318
REMARK  133  A    between atoms: _317  and  _320
REMARK  134  A    between atoms: _320  and  _321
REMARK  135  A    between atoms: _327  and  _329
REMARK  136  A    between atoms: _329  and  _330
REMARK  137  A    between atoms: _332  and  _334
REMARK  138  A    between atoms: _334  and  _335
REMARK  139  A    between atoms: _334  and  _337
REMARK  140  A    between atoms: _337  and  _338
REMARK  141  A    between atoms: _341  and  _343
REMARK  142  A    between atoms: _343  and  _344
REMARK  143  A    between atoms: _343  and  _346
REMARK  144  A    between atoms: _346  and  _347
REMARK  145  A    between atoms: _350  and  _352
REMARK  146  A    between atoms: _352  and  _353
REMARK  147  A    between atoms: _352  and  _355
REMARK  148  A    between atoms: _355  and  _356
REMARK  149  A    between atoms: _361  and  _363
REMARK  150  A    between atoms: _363  and  _364
REMARK  151  A    between atoms: _363  and  _366
REMARK  152  A    between atoms: _366  and  _367
REMARK  153  A    between atoms: _367  and  _369
REMARK  154  A    between atoms: _369  and  ZN_939
REMARK  155  A    between atoms: _370  and  _372
REMARK  156  A    between atoms: _372  and  _373
REMARK  157  A    between atoms: _372  and  _375
REMARK  158  A    between atoms: _375  and  _376
REMARK  159  A    between atoms: _378  and  _380
REMARK  160  A    between atoms: _380  and  _381
REMARK  161  A    between atoms: _380  and  _383
REMARK  162  A    between atoms: _383  and  _384
REMARK  163  A    between atoms: _386  and  _388
REMARK  164  A    between atoms: _388  and  _389
REMARK  165  A    between atoms: _388  and  _391
REMARK  166  A    between atoms: _391  and  _392
REMARK  167  A    between atoms: _395  and  _397
REMARK  168  A    between atoms: _397  and  _398
REMARK  169  A    between atoms: _397  and  _400
REMARK  170  A    between atoms: _400  and  _401
REMARK  171  A    between atoms: _401  and  _402
REMARK  172  A    between atoms: _405  and  _407
REMARK  173  A    between atoms: _407  and  _408
REMARK  174  A    between atoms: _407  and  _410
REMARK  175  A    between atoms: _410  and  _411
REMARK  176  A    between atoms: _416  and  _417
REMARK  177  A    between atoms: _419  and  _421
REMARK  178  A    between atoms: _421  and  _422
REMARK  179  A    between atoms: _421  and  _424
REMARK  180  A    between atoms: _424  and  _425
REMARK  181  A    between atoms: _428  and  _430
REMARK  182  A    between atoms: _430  and  _431
REMARK  183  A    between atoms: _430  and  _433
REMARK  184  A    between atoms: _433  and  _434
REMARK  185  A    between atoms: _437  and  _439
REMARK  186  A    between atoms: _439  and  _440
REMARK  187  A    between atoms: _439  and  _442
REMARK  188  A    between atoms: _442  and  _443
REMARK  189  A    between atoms: _443  and  _444
REMARK  190  A    between atoms: _444  and  _445
REMARK  191  A    between atoms: _454  and  _456
REMARK  192  A    between atoms: _456  and  _457
REMARK  193  A    between atoms: _456  and  _459
REMARK  194  A    between atoms: _462  and  _464
REMARK  195  A    between atoms: _464  and  _465
REMARK  196  A    between atoms: _464  and  _467
REMARK  197  A    between atoms: _467  and  _468
REMARK  198  A    between atoms: _471  and  _473
REMARK  199  A    between atoms: _473  and  _474
REMARK  200  A    between atoms: _473  and  _476
REMARK  201  A    between atoms: _476  and  _477
REMARK  202  A    between atoms: _487  and  _489
REMARK  203  A    between atoms: _489  and  _490
REMARK  204  A    between atoms: _489  and  _492
REMARK  205  A    between atoms: _492  and  _493
REMARK  206  A    between atoms: _493  and  _494
REMARK  207  A    between atoms: _494  and  _495
REMARK  208  A    between atoms: _495  and  _496
REMARK  209  A    between atoms: _500  and  _502
REMARK  210  A    between atoms: _502  and  _503
REMARK  211  A    between atoms: _502  and  _505
REMARK  212  A    between atoms: _505  and  _506
REMARK  213  A    between atoms: _509  and  _510
REMARK  214  A    between atoms: _516  and  _517
REMARK  215  A    between atoms: _522  and  _524
REMARK  216  A    between atoms: _524  and  _525
REMARK  217  A    between atoms: _524  and  _527
REMARK  218  A    between atoms: _527  and  _528
REMARK  219  A    between atoms: _528  and  _529
REMARK  220  A    between atoms: _529  and  _530
REMARK  221  A    between atoms: _539  and  _541
REMARK  222  A    between atoms: _541  and  _542
REMARK  223  A    between atoms: _541  and  _544
REMARK  224  A    between atoms: _544  and  _545
REMARK  225  A    between atoms: _548  and  _550
REMARK  226  A    between atoms: _550  and  _551
REMARK  227  A    between atoms: _550  and  _553
REMARK  228  A    between atoms: _553  and  _554
REMARK  229  A    between atoms: _556  and  _558
REMARK  230  A    between atoms: _558  and  _559
REMARK  231  A    between atoms: _558  and  _561
REMARK  232  A    between atoms: _561  and  _562
REMARK  233  A    between atoms: _562  and  _563
REMARK  234  A    between atoms: _563  and  _564
REMARK  235  A    between atoms: _564  and  _565
REMARK  236  A    between atoms: _569  and  _571
REMARK  237  A    between atoms: _571  and  _572
REMARK  238  A    between atoms: _571  and  _574
REMARK  239  A    between atoms: _574  and  _575
REMARK  240  A    between atoms: _578  and  _580
REMARK  241  A    between atoms: _580  and  _581
REMARK  242  A    between atoms: _583  and  _585
REMARK  243  A    between atoms: _585  and  _586
REMARK  244  A    between atoms: _585  and  _588
REMARK  245  A    between atoms: _588  and  _589
REMARK  246  A    between atoms: _591  and  _593
REMARK  247  A    between atoms: _593  and  _594
REMARK  248  A    between atoms: _596  and  _598
REMARK  249  A    between atoms: _598  and  _599
REMARK  250  A    between atoms: _598  and  _601
REMARK  251  A    between atoms: _601  and  _602
REMARK  252  A    between atoms: _607  and  _609
REMARK  253  A    between atoms: _609  and  _610
REMARK  254  A    between atoms: _609  and  _612
REMARK  255  A    between atoms: _612  and  _613
REMARK  256  A    between atoms: _616  and  _618
REMARK  257  A    between atoms: _618  and  _619
REMARK  258  A    between atoms: _618  and  _621
REMARK  259  A    between atoms: _621  and  _622
REMARK  260  A    between atoms: _628  and  _630
REMARK  261  A    between atoms: _630  and  _631
REMARK  262  A    between atoms: _630  and  _633
REMARK  263  A    between atoms: _633  and  _634
REMARK  264  A    between atoms: _634  and  _635
REMARK  265  A    between atoms: _638  and  _640
REMARK  266  A    between atoms: _640  and  _641
REMARK  267  A    between atoms: _640  and  _643
REMARK  268  A    between atoms: _643  and  _644
REMARK  269  A    between atoms: _644  and  _645
REMARK  270  A    between atoms: _645  and  _646
REMARK  271  A    between atoms: _655  and  _657
REMARK  272  A    between atoms: _657  and  _658
REMARK  273  A    between atoms: _657  and  _660
REMARK  274  A    between atoms: _660  and  _661
REMARK  275  A    between atoms: _661  and  _662
REMARK  276  A    between atoms: _662  and  _663
REMARK  277  A    between atoms: _672  and  _674
REMARK  278  A    between atoms: _674  and  _675
REMARK  279  A    between atoms: _674  and  _677
REMARK  280  A    between atoms: _677  and  _678
REMARK  281  A    between atoms: _683  and  _684
REMARK  282  A    between atoms: _686  and  _688
REMARK  283  A    between atoms: _688  and  _689
REMARK  284  A    between atoms: _688  and  _691
REMARK  285  A    between atoms: _691  and  _692
REMARK  286  A    between atoms: _695  and  _697
REMARK  287  A    between atoms: _697  and  _698
REMARK  288  A    between atoms: _697  and  _700
REMARK  289  A    between atoms: _700  and  _701
REMARK  290  A    between atoms: _701  and  _702
REMARK  291  A    between atoms: _702  and  _703
REMARK  292  A    between atoms: _703  and  _704
REMARK  293  A    between atoms: _708  and  _710
REMARK  294  A    between atoms: _710  and  _711
REMARK  295  A    between atoms: _710  and  _713
REMARK  296  A    between atoms: _713  and  _714
REMARK  297  A    between atoms: _719  and  _721
REMARK  298  A    between atoms: _721  and  _722
REMARK  299  A    between atoms: _721  and  _724
REMARK  300  A    between atoms: _724  and  _725
REMARK  301  A    between atoms: _735  and  _737
REMARK  302  A    between atoms: _737  and  _738
REMARK  303  A    between atoms: _737  and  _740
REMARK  304  A    between atoms: _740  and  _741
REMARK  305  A    between atoms: _741  and  _742
REMARK  306  A    between atoms: _745  and  _747
REMARK  307  A    between atoms: _747  and  _748
REMARK  308  A    between atoms: _747  and  _750
REMARK  309  A    between atoms: _750  and  _751
REMARK  310  A    between atoms: _754  and  _756
REMARK  311  A    between atoms: _756  and  _757
REMARK  312  A    between atoms: _756  and  _759
REMARK  313  A    between atoms: _759  and  _760
REMARK  314  A    between atoms: _765  and  _767
REMARK  315  A    between atoms: _767  and  _768
REMARK  316  A    between atoms: _767  and  _770
REMARK  317  A    between atoms: _770  and  _771
REMARK  318  A    between atoms: _777  and  _779
REMARK  319  A    between atoms: _779  and  _780
REMARK  320  A    between atoms: _779  and  _782
REMARK  321  A    between atoms: _782  and  _783
REMARK  322  A    between atoms: _785  and  _787
REMARK  323  A    between atoms: _787  and  _788
REMARK  324  A    between atoms: _790  and  _792
REMARK  325  A    between atoms: _792  and  _793
REMARK  326  A    between atoms: _792  and  _795
REMARK  327  A    between atoms: _795  and  _796
REMARK  328  A    between atoms: _801  and  _802
REMARK  329  A    between atoms: _804  and  _806
REMARK  330  A    between atoms: _806  and  _807
REMARK  331  A    between atoms: _806  and  _809
REMARK  332  A    between atoms: _809  and  _810
REMARK  333  A    between atoms: _815  and  _816
REMARK  334  A    between atoms: _818  and  _820
REMARK  335  A    between atoms: _820  and  _821
REMARK  336  A    between atoms: _820  and  _823
REMARK  337  A    between atoms: _823  and  _824
REMARK  338  A    between atoms: _828  and  ZN_938
REMARK  339  A    between atoms: _829  and  _831
REMARK  340  A    between atoms: _831  and  _832
REMARK  341  A    between atoms: _831  and  _834
REMARK  342  A    between atoms: _834  and  _835
REMARK  343  A    between atoms: _835  and  _836
REMARK  344  A    between atoms: _839  and  _841
REMARK  345  A    between atoms: _841  and  _842
REMARK  346  A    between atoms: _841  and  _844
REMARK  347  A    between atoms: _844  and  _845
REMARK  348  A    between atoms: _845  and  _846
REMARK  349  A    between atoms: _846  and  _847
REMARK  350  A    between atoms: _856  and  _858
REMARK  351  A    between atoms: _858  and  _859
REMARK  352  A    between atoms: _858  and  _861
REMARK  353  A    between atoms: _861  and  _862
REMARK  354  A    between atoms: _867  and  _868
REMARK  355  A    between atoms: _870  and  _872
REMARK  356  A    between atoms: _872  and  _873
REMARK  357  A    between atoms: _872  and  _875
REMARK  358  A    between atoms: _875  and  _876
REMARK  359  A    between atoms: _878  and  _880
REMARK  360  A    between atoms: _880  and  _881
REMARK  361  A    between atoms: _880  and  _883
REMARK  362  A    between atoms: _883  and  _884
REMARK  363  A    between atoms: _889  and  _891
REMARK  364  A    between atoms: _891  and  _892
REMARK  365  A    between atoms: _891  and  _894
REMARK  366  A    between atoms: _894  and  _895
REMARK  367  A    between atoms: _900  and  _902
REMARK  368  A    between atoms: _902  and  _903
REMARK  369  A    between atoms: _902  and  _905
REMARK  370  A    between atoms: _905  and  _906
REMARK  371  A    between atoms: _906  and  _907
REMARK  372  A    between atoms: _907  and  _908
REMARK  373  A    between atoms: _908  and  _909
REMARK  374  A    between atoms: _913  and  _915
REMARK  375  A    between atoms: _915  and  _916
REMARK  376  A    between atoms: _915  and  _918
REMARK  377  A    between atoms: _918  and  _919
REMARK  378  A    between atoms: _924  and  _925
REMARK  379  A    between atoms: _927  and  _929
REMARK  380  A    between atoms: _929  and  _930
REMARK  381  A    between atoms: _933  and  _935
REMARK  382  A    between atoms: _935  and  _936
REMARK                            x       y       z     vdW  Elec       q    Type
REMARK                         _______ _______ _______ _____ _____    ______ ____
ROOT
ATOM      1  O   HOH     1      31.925  46.435  36.627  0.00  0.00    +0.000 OA
ENDROOT
TORSDOF 0
REMARK  Name = ../refined-set-2016/2xeg/2xeg_pocket.pdb
REMARK  382 active torsions:
REMARK  status: ('A' for Active; 'I' for Inactive)
REMARK    1  A    between atoms: _1  and  _3
REMARK    2  A    between atoms: _3  and  _4
REMARK    3  A    between atoms: _7  and  _9
REMARK    4  A    between atoms: _9  and  _10
REMARK    5  A    between atoms: _9  and  _12
REMARK    6  A    between atoms: _12  and  _13
REMARK    7  A    between atoms: _19  and  _21
REMARK    8  A    between atoms: _21  and  _22
REMARK    9  A    between atoms: _21  and  _24
REMARK   10  A    between atoms: _24  and  _25
REMARK   11  A    between atoms: _30  and  _31
REMARK   12  A    between atoms: _33  and  _35
REMARK   13  A    between atoms: _35  and  _36
REMARK   14  A    between atoms: _38  and  _40
REMARK   15  A    between atoms: _40  and  _41
REMARK   16  A    between atoms: _40  and  _43
REMARK   17  A    between atoms: _43  and  _44
REMARK   18  A    between atoms: _44  and  _45
REMARK   19  A    between atoms: _45  and  _46
REMARK   20  A    between atoms: _46  and  _47
REMARK   21  A    between atoms: _51  and  _53
REMARK   22  A    between atoms: _53  and  _54
REMARK   23  A    between atoms: _53  and  _56
REMARK   24  A    between atoms: _59  and  _61
REMARK   25  A    between atoms: _61  and  _62
REMARK   26  A    between atoms: _61  and  _64
REMARK   27  A    between atoms: _64  and  _65
REMARK   28  A    between atoms: _71  and  _73
REMARK   29  A    between atoms: _73  and  _74
REMARK   30  A    between atoms: _73  and  _76
REMARK   31  A    between atoms: _76  and  _77
REMARK   32  A    between atoms: _77  and  _78
REMARK   33  A    between atoms: _78  and  _79
REMARK   34  A    between atoms: _88  and  _90
REMARK   35  A    between atoms: _90  and  _91
REMARK   36  A    between atoms: _93  and  _95
REMARK   37  A    between atoms: _95  and  _96
REMARK   38  A    between atoms: _95  and  _98
REMARK   39  A    between atoms: _98  and  _99
REMARK   40  A    between atoms: _99  and  _100
REMARK   41  A    between atoms: _100  and  _101
REMARK   42  A    between atoms: _101  and  _102
REMARK   43  A    between atoms: _106  and  _108
REMARK   44  A    between atoms: _108  and  _109
REMARK   45  A    between atoms: _108  and  _111
REMARK   46  A    between atoms: _111  and  _112
REMARK   47  A    between atoms: _115  and  _117
REMARK   48  A    between atoms: _117  and  _118
REMARK   49  A    between atoms: _117  and  _120
REMARK   50  A    between atoms: _120  and  _121
REMARK   51  A    between atoms: _126  and  _127
REMARK   52  A    between atoms: _129  and  _131
REMARK   53  A    between atoms: _131  and  _132
REMARK   54  A    between atoms: _131  and  _134
REMARK   55  A    between atoms: _134  and  _135
REMARK   56  A    between atoms: _135  and  _136
REMARK   57  A    between atoms: _141  and  _143
REMARK   58  A    between atoms: _143  and  _144
REMARK   59  A    between atoms: _143  and  _146
REMARK   60  A    between atoms: _146  and  _147
REMARK   61  A    between atoms: _147  and  _148
REMARK   62  A    between atoms: _148  and  _149
REMARK   63  A    between atoms: _158  and  _160
REMARK   64  A    between atoms: _160  and  _161
REMARK   65  A    between atoms: _163  and  _165
REMARK   66  A    between atoms: _165  and  _166
REMARK   67  A    between atoms: _165  and  _168
REMARK   68  A    between atoms: _168  and  _169
REMARK   69  A    between atoms: _174  and  _176
REMARK   70  A    between atoms: _176  and  _177
REMARK   71  A    between atoms: _176  and  _179
REMARK   72  A    between atoms: _179  and  _180
REMARK   73  A    between atoms: _183  and  _185
REMARK   74  A    between atoms: _185  and  _186
REMARK   75  A    between atoms: _185  and  _188
REMARK   76  A    between atoms: _188  and  _189
REMARK   77  A    between atoms: _192  and  _194
REMARK   78  A    between atoms: _194  and  _195
REMARK   79  A    between atoms: _194  and  _197
REMARK   80  A    between atoms: _197  and  _198
REMARK   81  A    between atoms: _203  and  _205
REMARK   82  A    between atoms: _205  and  _206
REMARK   83  A    between atoms: _205  and  _208
REMARK   84  A    between atoms: _208  and  _209
REMARK   85  A    between atoms: _212  and  _214
REMARK   86  A    between atoms: _214  and  _215
REMARK   87  A    between atoms: _214  and  _217
REMARK   88  A    between atoms: _217  and  _218
REMARK   89  A    between atoms: _223  and  _225
REMARK   90  A    between atoms: _225  and  _226
REMARK   91  A    between atoms: _228  and  _230
REMARK   92  A    between atoms: _230  and  _231
REMARK   93  A    between atoms: _230  and  _233
REMARK   94  A    between atoms: _233  and  _234
REMARK   95  A    between atoms: _238  and  ZN_939
REMARK   96  A    between atoms: _239  and  _241
REMARK   97  A    between atoms: _241  and  _242
REMARK   98  A    between atoms: _241  and  _244
REMARK   99  A    between atoms: _244  and  _245
REMARK  100  A    between atoms: _248  and  _250
REMARK  101  A    between atoms: _250  and  _251
REMARK  102  A    between atoms: _250  and  _253
REMARK  103  A    between atoms: _253  and  _254
REMARK  104  A    between atoms: _264  and  _266
REMARK  105  A    between atoms: _266  and  _267
REMARK  106  A    between atoms: _266  and  _269
REMARK  107  A    between atoms: _269  and  _270
REMARK  108  A    between atoms: _273  and  _275
REMARK  109  A    between atoms: _275  and  _276
REMARK  110  A    between atoms: _275  and  _278
REMARK  111  A    between atoms: _278  and  _279
REMARK  112  A    between atoms: _279  and  _280
REMARK  113  A    between atoms: _279  and  _281
REMARK  114  A    between atoms: _280  and  ZN_939
REMARK  115  A    between atoms: _281  and  ZN_938
REMARK  116  A    between atoms: _283  and  _284
REMARK  117  A    between atoms: _289  and  _291
REMARK  118  A    between atoms: _291  and  _292
REMARK  119  A    between atoms: _295  and  _297
REMARK  120  A    between atoms: _297  and  _298
REMARK  121  A    between atoms: _297  and  _300
REMARK  122  A    between atoms: _300  and  _301
REMARK  123  A    between atoms: _301  and  _302
REMARK  124  A    between atoms: _305  and  _307
REMARK  125  A    between atoms: _307  and  _308
REMARK  126  A    between atoms: _307  and  _310
REMARK  127  A    between atoms: _310  and  _311
REMARK  128  A    between atoms: _311  and  _312
REMARK  129  A    between atoms: _312  and  _314
REMARK  130  A    between atoms: _314  and  ZN_938
REMARK  131  A    between atoms: _315  and  _317
REMARK  132  A    between atoms: _317  and  _318
REMARK  133  A    between atoms: _317  and  _320
REMARK  134  A    between atoms: _320  and  _321
REMARK  135  A    between atoms: _327  and  _329
REMARK  136  A    between atoms: _329  and  _330
REMARK  137  A    between atoms: _332  and  _334
REMARK  138  A    between atoms: _334  and  _335
REMARK  139  A    between atoms: _334  and  _337
REMARK  140  A    between atoms: _337  and  _338
REMARK  141  A    between atoms: _341  and  _343
REMARK  142  A    between atoms: _343  and  _344
REMARK  143  A    between atoms: _343  and  _346
REMARK  144  A    between atoms: _346  and  _347
REMARK  145  A    between atoms: _350  and  _352
REMARK  146  A    between atoms: _352  and  _353
REMARK  147  A    between atoms: _352  and  _355
REMARK  148  A    between atoms: _355  and  _356
REMARK  149  A    between atoms: _361  and  _363
REMARK  150  A    between atoms: _363  and  _364
REMARK  151  A    between atoms: _363  and  _366
REMARK  152  A    between atoms: _366  and  _367
REMARK  153  A    between atoms: _367  and  _369
REMARK  154  A    between atoms: _369  and  ZN_939
REMARK  155  A    between atoms: _370  and  _372
REMARK  156  A    between atoms: _372  and  _373
REMARK  157  A    between atoms: _372  and  _375
REMARK  158  A    between atoms: _375  and  _376
REMARK  159  A    between atoms: _378  and  _380
REMARK  160  A    between atoms: _380  and  _381
REMARK  161  A    between atoms: _380  and  _383
REMARK  162  A    between atoms: _383  and  _384
REMARK  163  A    between atoms: _386  and  _388
REMARK  164  A    between atoms: _388  and  _389
REMARK  165  A    between atoms: _388  and  _391
REMARK  166  A    between atoms: _391  and  _392
REMARK  167  A    between atoms: _395  and  _397
REMARK  168  A    between atoms: _397  and  _398
REMARK  169  A    between atoms: _397  and  _400
REMARK  170  A    between atoms: _400  and  _401
REMARK  171  A    between atoms: _401  and  _402
REMARK  172  A    between atoms: _405  and  _407
REMARK  173  A    between atoms: _407  and  _408
REMARK  174  A    between atoms: _407  and  _410
REMARK  175  A    between atoms: _410  and  _411
REMARK  176  A    between atoms: _416  and  _417
REMARK  177  A    between atoms: _419  and  _421
REMARK  178  A    between atoms: _421  and  _422
REMARK  179  A    between atoms: _421  and  _424
REMARK  180  A    between atoms: _424  and  _425
REMARK  181  A    between atoms: _428  and  _430
REMARK  182  A    between atoms: _430  and  _431
REMARK  183  A    between atoms: _430  and  _433
REMARK  184  A    between atoms: _433  and  _434
REMARK  185  A    between atoms: _437  and  _439
REMARK  186  A    between atoms: _439  and  _440
REMARK  187  A    between atoms: _439  and  _442
REMARK  188  A    between atoms: _442  and  _443
REMARK  189  A    between atoms: _443  and  _444
REMARK  190  A    between atoms: _444  and  _445
REMARK  191  A    between atoms: _454  and  _456
REMARK  192  A    between atoms: _456  and  _457
REMARK  193  A    between atoms: _456  and  _459
REMARK  194  A    between atoms: _462  and  _464
REMARK  195  A    between atoms: _464  and  _465
REMARK  196  A    between atoms: _464  and  _467
REMARK  197  A    between atoms: _467  and  _468
REMARK  198  A    between atoms: _471  and  _473
REMARK  199  A    between atoms: _473  and  _474
REMARK  200  A    between atoms: _473  and  _476
REMARK  201  A    between atoms: _476  and  _477
REMARK  202  A    between atoms: _487  and  _489
REMARK  203  A    between atoms: _489  and  _490
REMARK  204  A    between atoms: _489  and  _492
REMARK  205  A    between atoms: _492  and  _493
REMARK  206  A    between atoms: _493  and  _494
REMARK  207  A    between atoms: _494  and  _495
REMARK  208  A    between atoms: _495  and  _496
REMARK  209  A    between atoms: _500  and  _502
REMARK  210  A    between atoms: _502  and  _503
REMARK  211  A    between atoms: _502  and  _505
REMARK  212  A    between atoms: _505  and  _506
REMARK  213  A    between atoms: _509  and  _510
REMARK  214  A    between atoms: _516  and  _517
REMARK  215  A    between atoms: _522  and  _524
REMARK  216  A    between atoms: _524  and  _525
REMARK  217  A    between atoms: _524  and  _527
REMARK  218  A    between atoms: _527  and  _528
REMARK  219  A    between atoms: _528  and  _529
REMARK  220  A    between atoms: _529  and  _530
REMARK  221  A    between atoms: _539  and  _541
REMARK  222  A    between atoms: _541  and  _542
REMARK  223  A    between atoms: _541  and  _544
REMARK  224  A    between atoms: _544  and  _545
REMARK  225  A    between atoms: _548  and  _550
REMARK  226  A    between atoms: _550  and  _551
REMARK  227  A    between atoms: _550  and  _553
REMARK  228  A    between atoms: _553  and  _554
REMARK  229  A    between atoms: _556  and  _558
REMARK  230  A    between atoms: _558  and  _559
REMARK  231  A    between atoms: _558  and  _561
REMARK  232  A    between atoms: _561  and  _562
REMARK  233  A    between atoms: _562  and  _563
REMARK  234  A    between atoms: _563  and  _564
REMARK  235  A    between atoms: _564  and  _565
REMARK  236  A    between atoms: _569  and  _571
REMARK  237  A    between atoms: _571  and  _572
REMARK  238  A    between atoms: _571  and  _574
REMARK  239  A    between atoms: _574  and  _575
REMARK  240  A    between atoms: _578  and  _580
REMARK  241  A    between atoms: _580  and  _581
REMARK  242  A    between atoms: _583  and  _585
REMARK  243  A    between atoms: _585  and  _586
REMARK  244  A    between atoms: _585  and  _588
REMARK  245  A    between atoms: _588  and  _589
REMARK  246  A    between atoms: _591  and  _593
REMARK  247  A    between atoms: _593  and  _594
REMARK  248  A    between atoms: _596  and  _598
REMARK  249  A    between atoms: _598  and  _599
REMARK  250  A    between atoms: _598  and  _601
REMARK  251  A    between atoms: _601  and  _602
REMARK  252  A    between atoms: _607  and  _609
REMARK  253  A    between atoms: _609  and  _610
REMARK  254  A    between atoms: _609  and  _612
REMARK  255  A    between atoms: _612  and  _613
REMARK  256  A    between atoms: _616  and  _618
REMARK  257  A    between atoms: _618  and  _619
REMARK  258  A    between atoms: _618  and  _621
REMARK  259  A    between atoms: _621  and  _622
REMARK  260  A    between atoms: _628  and  _630
REMARK  261  A    between atoms: _630  and  _631
REMARK  262  A    between atoms: _630  and  _633
REMARK  263  A    between atoms: _633  and  _634
REMARK  264  A    between atoms: _634  and  _635
REMARK  265  A    between atoms: _638  and  _640
REMARK  266  A    between atoms: _640  and  _641
REMARK  267  A    between atoms: _640  and  _643
REMARK  268  A    between atoms: _643  and  _644
REMARK  269  A    between atoms: _644  and  _645
REMARK  270  A    between atoms: _645  and  _646
REMARK  271  A    between atoms: _655  and  _657
REMARK  272  A    between atoms: _657  and  _658
REMARK  273  A    between atoms: _657  and  _660
REMARK  274  A    between atoms: _660  and  _661
REMARK  275  A    between atoms: _661  and  _662
REMARK  276  A    between atoms: _662  and  _663
REMARK  277  A    between atoms: _672  and  _674
REMARK  278  A    between atoms: _674  and  _675
REMARK  279  A    between atoms: _674  and  _677
REMARK  280  A    between atoms: _677  and  _678
REMARK  281  A    between atoms: _683  and  _684
REMARK  282  A    between atoms: _686  and  _688
REMARK  283  A    between atoms: _688  and  _689
REMARK  284  A    between atoms: _688  and  _691
REMARK  285  A    between atoms: _691  and  _692
REMARK  286  A    between atoms: _695  and  _697
REMARK  287  A    between atoms: _697  and  _698
REMARK  288  A    between atoms: _697  and  _700
REMARK  289  A    between atoms: _700  and  _701
REMARK  290  A    between atoms: _701  and  _702
REMARK  291  A    between atoms: _702  and  _703
REMARK  292  A    between atoms: _703  and  _704
REMARK  293  A    between atoms: _708  and  _710
REMARK  294  A    between atoms: _710  and  _711
REMARK  295  A    between atoms: _710  and  _713
REMARK  296  A    between atoms: _713  and  _714
REMARK  297  A    between atoms: _719  and  _721
REMARK  298  A    between atoms: _721  and  _722
REMARK  299  A    between atoms: _721  and  _724
REMARK  300  A    between atoms: _724  and  _725
REMARK  301  A    between atoms: _735  and  _737
REMARK  302  A    between atoms: _737  and  _738
REMARK  303  A    between atoms: _737  and  _740
REMARK  304  A    between atoms: _740  and  _741
REMARK  305  A    between atoms: _741  and  _742
REMARK  306  A    between atoms: _745  and  _747
REMARK  307  A    between atoms: _747  and  _748
REMARK  308  A    between atoms: _747  and  _750
REMARK  309  A    between atoms: _750  and  _751
REMARK  310  A    between atoms: _754  and  _756
REMARK  311  A    between atoms: _756  and  _757
REMARK  312  A    between atoms: _756  and  _759
REMARK  313  A    between atoms: _759  and  _760
REMARK  314  A    between atoms: _765  and  _767
REMARK  315  A    between atoms: _767  and  _768
REMARK  316  A    between atoms: _767  and  _770
REMARK  317  A    between atoms: _770  and  _771
REMARK  318  A    between atoms: _777  and  _779
REMARK  319  A    between atoms: _779  and  _780
REMARK  320  A    between atoms: _779  and  _782
REMARK  321  A    between atoms: _782  and  _783
REMARK  322  A    between atoms: _785  and  _787
REMARK  323  A    between atoms: _787  and  _788
REMARK  324  A    between atoms: _790  and  _792
REMARK  325  A    between atoms: _792  and  _793
REMARK  326  A    between atoms: _792  and  _795
REMARK  327  A    between atoms: _795  and  _796
REMARK  328  A    between atoms: _801  and  _802
REMARK  329  A    between atoms: _804  and  _806
REMARK  330  A    between atoms: _806  and  _807
REMARK  331  A    between atoms: _806  and  _809
REMARK  332  A    between atoms: _809  and  _810
REMARK  333  A    between atoms: _815  and  _816
REMARK  334  A    between atoms: _818  and  _820
REMARK  335  A    between atoms: _820  and  _821
REMARK  336  A    between atoms: _820  and  _823
REMARK  337  A    between atoms: _823  and  _824
REMARK  338  A    between atoms: _828  and  ZN_938
REMARK  339  A    between atoms: _829  and  _831
REMARK  340  A    between atoms: _831  and  _832
REMARK  341  A    between atoms: _831  and  _834
REMARK  342  A    between atoms: _834  and  _835
REMARK  343  A    between atoms: _835  and  _836
REMARK  344  A    between atoms: _839  and  _841
REMARK  345  A    between atoms: _841  and  _842
REMARK  346  A    between atoms: _841  and  _844
REMARK  347  A    between atoms: _844  and  _845
REMARK  348  A    between atoms: _845  and  _846
REMARK  349  A    between atoms: _846  and  _847
REMARK  350  A    between atoms: _856  and  _858
REMARK  351  A    between atoms: _858  and  _859
REMARK  352  A    between atoms: _858  and  _861
REMARK  353  A    between atoms: _861  and  _862
REMARK  354  A    between atoms: _867  and  _868
REMARK  355  A    between atoms: _870  and  _872
REMARK  356  A    between atoms: _872  and  _873
REMARK  357  A    between atoms: _872  and  _875
REMARK  358  A    between atoms: _875  and  _876
REMARK  359  A    between atoms: _878  and  _880
REMARK  360  A    between atoms: _880  and  _881
REMARK  361  A    between atoms: _880  and  _883
REMARK  362  A    between atoms: _883  and  _884
REMARK  363  A    between atoms: _889  and  _891
REMARK  364  A    between atoms: _891  and  _892
REMARK  365  A    between atoms: _891  and  _894
REMARK  366  A    between atoms: _894  and  _895
REMARK  367  A    between atoms: _900  and  _902
REMARK  368  A    between atoms: _902  and  _903
REMARK  369  A    between atoms: _902  and  _905
REMARK  370  A    between atoms: _905  and  _906
REMARK  371  A    between atoms: _906  and  _907
REMARK  372  A    between atoms: _907  and  _908
REMARK  373  A    between atoms: _908  and  _909
REMARK  374  A    between atoms: _913  and  _915
REMARK  375  A    between atoms: _915  and  _916
REMARK  376  A    between atoms: _915  and  _918
REMARK  377  A    between atoms: _918  and  _919
REMARK  378  A    between atoms: _924  and  _925
REMARK  379  A    between atoms: _927  and  _929
REMARK  380  A    between atoms: _929  and  _930
REMARK  381  A    between atoms: _933  and  _935
REMARK  382  A    between atoms: _935  and  _936
REMARK                            x       y       z     vdW  Elec       q    Type
REMARK                         _______ _______ _______ _____ _____    ______ ____
ROOT
ATOM      1  O   HOH     1      25.017  42.709  43.142  0.00  0.00    +0.000 OA
ENDROOT
TORSDOF 0
REMARK  Name = ../refined-set-2016/2xeg/2xeg_pocket.pdb
REMARK  382 active torsions:
REMARK  status: ('A' for Active; 'I' for Inactive)
REMARK    1  A    between atoms: _1  and  _3
REMARK    2  A    between atoms: _3  and  _4
REMARK    3  A    between atoms: _7  and  _9
REMARK    4  A    between atoms: _9  and  _10
REMARK    5  A    between atoms: _9  and  _12
REMARK    6  A    between atoms: _12  and  _13
REMARK    7  A    between atoms: _19  and  _21
REMARK    8  A    between atoms: _21  and  _22
REMARK    9  A    between atoms: _21  and  _24
REMARK   10  A    between atoms: _24  and  _25
REMARK   11  A    between atoms: _30  and  _31
REMARK   12  A    between atoms: _33  and  _35
REMARK   13  A    between atoms: _35  and  _36
REMARK   14  A    between atoms: _38  and  _40
REMARK   15  A    between atoms: _40  and  _41
REMARK   16  A    between atoms: _40  and  _43
REMARK   17  A    between atoms: _43  and  _44
REMARK   18  A    between atoms: _44  and  _45
REMARK   19  A    between atoms: _45  and  _46
REMARK   20  A    between atoms: _46  and  _47
REMARK   21  A    between atoms: _51  and  _53
REMARK   22  A    between atoms: _53  and  _54
REMARK   23  A    between atoms: _53  and  _56
REMARK   24  A    between atoms: _59  and  _61
REMARK   25  A    between atoms: _61  and  _62
REMARK   26  A    between atoms: _61  and  _64
REMARK   27  A    between atoms: _64  and  _65
REMARK   28  A    between atoms: _71  and  _73
REMARK   29  A    between atoms: _73  and  _74
REMARK   30  A    between atoms: _73  and  _76
REMARK   31  A    between atoms: _76  and  _77
REMARK   32  A    between atoms: _77  and  _78
REMARK   33  A    between atoms: _78  and  _79
REMARK   34  A    between atoms: _88  and  _90
REMARK   35  A    between atoms: _90  and  _91
REMARK   36  A    between atoms: _93  and  _95
REMARK   37  A    between atoms: _95  and  _96
REMARK   38  A    between atoms: _95  and  _98
REMARK   39  A    between atoms: _98  and  _99
REMARK   40  A    between atoms: _99  and  _100
REMARK   41  A    between atoms: _100  and  _101
REMARK   42  A    between atoms: _101  and  _102
REMARK   43  A    between atoms: _106  and  _108
REMARK   44  A    between atoms: _108  and  _109
REMARK   45  A    between atoms: _108  and  _111
REMARK   46  A    between atoms: _111  and  _112
REMARK   47  A    between atoms: _115  and  _117
REMARK   48  A    between atoms: _117  and  _118
REMARK   49  A    between atoms: _117  and  _120
REMARK   50  A    between atoms: _120  and  _121
REMARK   51  A    between atoms: _126  and  _127
REMARK   52  A    between atoms: _129  and  _131
REMARK   53  A    between atoms: _131  and  _132
REMARK   54  A    between atoms: _131  and  _134
REMARK   55  A    between atoms: _134  and  _135
REMARK   56  A    between atoms: _135  and  _136
REMARK   57  A    between atoms: _141  and  _143
REMARK   58  A    between atoms: _143  and  _144
REMARK   59  A    between atoms: _143  and  _146
REMARK   60  A    between atoms: _146  and  _147
REMARK   61  A    between atoms: _147  and  _148
REMARK   62  A    between atoms: _148  and  _149
REMARK   63  A    between atoms: _158  and  _160
REMARK   64  A    between atoms: _160  and  _161
REMARK   65  A    between atoms: _163  and  _165
REMARK   66  A    between atoms: _165  and  _166
REMARK   67  A    between atoms: _165  and  _168
REMARK   68  A    between atoms: _168  and  _169
REMARK   69  A    between atoms: _174  and  _176
REMARK   70  A    between atoms: _176  and  _177
REMARK   71  A    between atoms: _176  and  _179
REMARK   72  A    between atoms: _179  and  _180
REMARK   73  A    between atoms: _183  and  _185
REMARK   74  A    between atoms: _185  and  _186
REMARK   75  A    between atoms: _185  and  _188
REMARK   76  A    between atoms: _188  and  _189
REMARK   77  A    between atoms: _192  and  _194
REMARK   78  A    between atoms: _194  and  _195
REMARK   79  A    between atoms: _194  and  _197
REMARK   80  A    between atoms: _197  and  _198
REMARK   81  A    between atoms: _203  and  _205
REMARK   82  A    between atoms: _205  and  _206
REMARK   83  A    between atoms: _205  and  _208
REMARK   84  A    between atoms: _208  and  _209
REMARK   85  A    between atoms: _212  and  _214
REMARK   86  A    between atoms: _214  and  _215
REMARK   87  A    between atoms: _214  and  _217
REMARK   88  A    between atoms: _217  and  _218
REMARK   89  A    between atoms: _223  and  _225
REMARK   90  A    between atoms: _225  and  _226
REMARK   91  A    between atoms: _228  and  _230
REMARK   92  A    between atoms: _230  and  _231
REMARK   93  A    between atoms: _230  and  _233
REMARK   94  A    between atoms: _233  and  _234
REMARK   95  A    between atoms: _238  and  ZN_939
REMARK   96  A    between atoms: _239  and  _241
REMARK   97  A    between atoms: _241  and  _242
REMARK   98  A    between atoms: _241  and  _244
REMARK   99  A    between atoms: _244  and  _245
REMARK  100  A    between atoms: _248  and  _250
REMARK  101  A    between atoms: _250  and  _251
REMARK  102  A    between atoms: _250  and  _253
REMARK  103  A    between atoms: _253  and  _254
REMARK  104  A    between atoms: _264  and  _266
REMARK  105  A    between atoms: _266  and  _267
REMARK  106  A    between atoms: _266  and  _269
REMARK  107  A    between atoms: _269  and  _270
REMARK  108  A    between atoms: _273  and  _275
REMARK  109  A    between atoms: _275  and  _276
REMARK  110  A    between atoms: _275  and  _278
REMARK  111  A    between atoms: _278  and  _279
REMARK  112  A    between atoms: _279  and  _280
REMARK  113  A    between atoms: _279  and  _281
REMARK  114  A    between atoms: _280  and  ZN_939
REMARK  115  A    between atoms: _281  and  ZN_938
REMARK  116  A    between atoms: _283  and  _284
REMARK  117  A    between atoms: _289  and  _291
REMARK  118  A    between atoms: _291  and  _292
REMARK  119  A    between atoms: _295  and  _297
REMARK  120  A    between atoms: _297  and  _298
REMARK  121  A    between atoms: _297  and  _300
REMARK  122  A    between atoms: _300  and  _301
REMARK  123  A    between atoms: _301  and  _302
REMARK  124  A    between atoms: _305  and  _307
REMARK  125  A    between atoms: _307  and  _308
REMARK  126  A    between atoms: _307  and  _310
REMARK  127  A    between atoms: _310  and  _311
REMARK  128  A    between atoms: _311  and  _312
REMARK  129  A    between atoms: _312  and  _314
REMARK  130  A    between atoms: _314  and  ZN_938
REMARK  131  A    between atoms: _315  and  _317
REMARK  132  A    between atoms: _317  and  _318
REMARK  133  A    between atoms: _317  and  _320
REMARK  134  A    between atoms: _320  and  _321
REMARK  135  A    between atoms: _327  and  _329
REMARK  136  A    between atoms: _329  and  _330
REMARK  137  A    between atoms: _332  and  _334
REMARK  138  A    between atoms: _334  and  _335
REMARK  139  A    between atoms: _334  and  _337
REMARK  140  A    between atoms: _337  and  _338
REMARK  141  A    between atoms: _341  and  _343
REMARK  142  A    between atoms: _343  and  _344
REMARK  143  A    between atoms: _343  and  _346
REMARK  144  A    between atoms: _346  and  _347
REMARK  145  A    between atoms: _350  and  _352
REMARK  146  A    between atoms: _352  and  _353
REMARK  147  A    between atoms: _352  and  _355
REMARK  148  A    between atoms: _355  and  _356
REMARK  149  A    between atoms: _361  and  _363
REMARK  150  A    between atoms: _363  and  _364
REMARK  151  A    between atoms: _363  and  _366
REMARK  152  A    between atoms: _366  and  _367
REMARK  153  A    between atoms: _367  and  _369
REMARK  154  A    between atoms: _369  and  ZN_939
REMARK  155  A    between atoms: _370  and  _372
REMARK  156  A    between atoms: _372  and  _373
REMARK  157  A    between atoms: _372  and  _375
REMARK  158  A    between atoms: _375  and  _376
REMARK  159  A    between atoms: _378  and  _380
REMARK  160  A    between atoms: _380  and  _381
REMARK  161  A    between atoms: _380  and  _383
REMARK  162  A    between atoms: _383  and  _384
REMARK  163  A    between atoms: _386  and  _388
REMARK  164  A    between atoms: _388  and  _389
REMARK  165  A    between atoms: _388  and  _391
REMARK  166  A    between atoms: _391  and  _392
REMARK  167  A    between atoms: _395  and  _397
REMARK  168  A    between atoms: _397  and  _398
REMARK  169  A    between atoms: _397  and  _400
REMARK  170  A    between atoms: _400  and  _401
REMARK  171  A    between atoms: _401  and  _402
REMARK  172  A    between atoms: _405  and  _407
REMARK  173  A    between atoms: _407  and  _408
REMARK  174  A    between atoms: _407  and  _410
REMARK  175  A    between atoms: _410  and  _411
REMARK  176  A    between atoms: _416  and  _417
REMARK  177  A    between atoms: _419  and  _421
REMARK  178  A    between atoms: _421  and  _422
REMARK  179  A    between atoms: _421  and  _424
REMARK  180  A    between atoms: _424  and  _425
REMARK  181  A    between atoms: _428  and  _430
REMARK  182  A    between atoms: _430  and  _431
REMARK  183  A    between atoms: _430  and  _433
REMARK  184  A    between atoms: _433  and  _434
REMARK  185  A    between atoms: _437  and  _439
REMARK  186  A    between atoms: _439  and  _440
REMARK  187  A    between atoms: _439  and  _442
REMARK  188  A    between atoms: _442  and  _443
REMARK  189  A    between atoms: _443  and  _444
REMARK  190  A    between atoms: _444  and  _445
REMARK  191  A    between atoms: _454  and  _456
REMARK  192  A    between atoms: _456  and  _457
REMARK  193  A    between atoms: _456  and  _459
REMARK  194  A    between atoms: _462  and  _464
REMARK  195  A    between atoms: _464  and  _465
REMARK  196  A    between atoms: _464  and  _467
REMARK  197  A    between atoms: _467  and  _468
REMARK  198  A    between atoms: _471  and  _473
REMARK  199  A    between atoms: _473  and  _474
REMARK  200  A    between atoms: _473  and  _476
REMARK  201  A    between atoms: _476  and  _477
REMARK  202  A    between atoms: _487  and  _489
REMARK  203  A    between atoms: _489  and  _490
REMARK  204  A    between atoms: _489  and  _492
REMARK  205  A    between atoms: _492  and  _493
REMARK  206  A    between atoms: _493  and  _494
REMARK  207  A    between atoms: _494  and  _495
REMARK  208  A    between atoms: _495  and  _496
REMARK  209  A    between atoms: _500  and  _502
REMARK  210  A    between atoms: _502  and  _503
REMARK  211  A    between atoms: _502  and  _505
REMARK  212  A    between atoms: _505  and  _506
REMARK  213  A    between atoms: _509  and  _510
REMARK  214  A    between atoms: _516  and  _517
REMARK  215  A    between atoms: _522  and  _524
REMARK  216  A    between atoms: _524  and  _525
REMARK  217  A    between atoms: _524  and  _527
REMARK  218  A    between atoms: _527  and  _528
REMARK  219  A    between atoms: _528  and  _529
REMARK  220  A    between atoms: _529  and  _530
REMARK  221  A    between atoms: _539  and  _541
REMARK  222  A    between atoms: _541  and  _542
REMARK  223  A    between atoms: _541  and  _544
REMARK  224  A    between atoms: _544  and  _545
REMARK  225  A    between atoms: _548  and  _550
REMARK  226  A    between atoms: _550  and  _551
REMARK  227  A    between atoms: _550  and  _553
REMARK  228  A    between atoms: _553  and  _554
REMARK  229  A    between atoms: _556  and  _558
REMARK  230  A    between atoms: _558  and  _559
REMARK  231  A    between atoms: _558  and  _561
REMARK  232  A    between atoms: _561  and  _562
REMARK  233  A    between atoms: _562  and  _563
REMARK  234  A    between atoms: _563  and  _564
REMARK  235  A    between atoms: _564  and  _565
REMARK  236  A    between atoms: _569  and  _571
REMARK  237  A    between atoms: _571  and  _572
REMARK  238  A    between atoms: _571  and  _574
REMARK  239  A    between atoms: _574  and  _575
REMARK  240  A    between atoms: _578  and  _580
REMARK  241  A    between atoms: _580  and  _581
REMARK  242  A    between atoms: _583  and  _585
REMARK  243  A    between atoms: _585  and  _586
REMARK  244  A    between atoms: _585  and  _588
REMARK  245  A    between atoms: _588  and  _589
REMARK  246  A    between atoms: _591  and  _593
REMARK  247  A    between atoms: _593  and  _594
REMARK  248  A    between atoms: _596  and  _598
REMARK  249  A    between atoms: _598  and  _599
REMARK  250  A    between atoms: _598  and  _601
REMARK  251  A    between atoms: _601  and  _602
REMARK  252  A    between atoms: _607  and  _609
REMARK  253  A    between atoms: _609  and  _610
REMARK  254  A    between atoms: _609  and  _612
REMARK  255  A    between atoms: _612  and  _613
REMARK  256  A    between atoms: _616  and  _618
REMARK  257  A    between atoms: _618  and  _619
REMARK  258  A    between atoms: _618  and  _621
REMARK  259  A    between atoms: _621  and  _622
REMARK  260  A    between atoms: _628  and  _630
REMARK  261  A    between atoms: _630  and  _631
REMARK  262  A    between atoms: _630  and  _633
REMARK  263  A    between atoms: _633  and  _634
REMARK  264  A    between atoms: _634  and  _635
REMARK  265  A    between atoms: _638  and  _640
REMARK  266  A    between atoms: _640  and  _641
REMARK  267  A    between atoms: _640  and  _643
REMARK  268  A    between atoms: _643  and  _644
REMARK  269  A    between atoms: _644  and  _645
REMARK  270  A    between atoms: _645  and  _646
REMARK  271  A    between atoms: _655  and  _657
REMARK  272  A    between atoms: _657  and  _658
REMARK  273  A    between atoms: _657  and  _660
REMARK  274  A    between atoms: _660  and  _661
REMARK  275  A    between atoms: _661  and  _662
REMARK  276  A    between atoms: _662  and  _663
REMARK  277  A    between atoms: _672  and  _674
REMARK  278  A    between atoms: _674  and  _675
REMARK  279  A    between atoms: _674  and  _677
REMARK  280  A    between atoms: _677  and  _678
REMARK  281  A    between atoms: _683  and  _684
REMARK  282  A    between atoms: _686  and  _688
REMARK  283  A    between atoms: _688  and  _689
REMARK  284  A    between atoms: _688  and  _691
REMARK  285  A    between atoms: _691  and  _692
REMARK  286  A    between atoms: _695  and  _697
REMARK  287  A    between atoms: _697  and  _698
REMARK  288  A    between atoms: _697  and  _700
REMARK  289  A    between atoms: _700  and  _701
REMARK  290  A    between atoms: _701  and  _702
REMARK  291  A    between atoms: _702  and  _703
REMARK  292  A    between atoms: _703  and  _704
REMARK  293  A    between atoms: _708  and  _710
REMARK  294  A    between atoms: _710  and  _711
REMARK  295  A    between atoms: _710  and  _713
REMARK  296  A    between atoms: _713  and  _714
REMARK  297  A    between atoms: _719  and  _721
REMARK  298  A    between atoms: _721  and  _722
REMARK  299  A    between atoms: _721  and  _724
REMARK  300  A    between atoms: _724  and  _725
REMARK  301  A    between atoms: _735  and  _737
REMARK  302  A    between atoms: _737  and  _738
REMARK  303  A    between atoms: _737  and  _740
REMARK  304  A    between atoms: _740  and  _741
REMARK  305  A    between atoms: _741  and  _742
REMARK  306  A    between atoms: _745  and  _747
REMARK  307  A    between atoms: _747  and  _748
REMARK  308  A    between atoms: _747  and  _750
REMARK  309  A    between atoms: _750  and  _751
REMARK  310  A    between atoms: _754  and  _756
REMARK  311  A    between atoms: _756  and  _757
REMARK  312  A    between atoms: _756  and  _759
REMARK  313  A    between atoms: _759  and  _760
REMARK  314  A    between atoms: _765  and  _767
REMARK  315  A    between atoms: _767  and  _768
REMARK  316  A    between atoms: _767  and  _770
REMARK  317  A    between atoms: _770  and  _771
REMARK  318  A    between atoms: _777  and  _779
REMARK  319  A    between atoms: _779  and  _780
REMARK  320  A    between atoms: _779  and  _782
REMARK  321  A    between atoms: _782  and  _783
REMARK  322  A    between atoms: _785  and  _787
REMARK  323  A    between atoms: _787  and  _788
REMARK  324  A    between atoms: _790  and  _792
REMARK  325  A    between atoms: _792  and  _793
REMARK  326  A    between atoms: _792  and  _795
REMARK  327  A    between atoms: _795  and  _796
REMARK  328  A    between atoms: _801  and  _802
REMARK  329  A    between atoms: _804  and  _806
REMARK  330  A    between atoms: _806  and  _807
REMARK  331  A    between atoms: _806  and  _809
REMARK  332  A    between atoms: _809  and  _810
REMARK  333  A    between atoms: _815  and  _816
REMARK  334  A    between atoms: _818  and  _820
REMARK  335  A    between atoms: _820  and  _821
REMARK  336  A    between atoms: _820  and  _823
REMARK  337  A    between atoms: _823  and  _824
REMARK  338  A    between atoms: _828  and  ZN_938
REMARK  339  A    between atoms: _829  and  _831
REMARK  340  A    between atoms: _831  and  _832
REMARK  341  A    between atoms: _831  and  _834
REMARK  342  A    between atoms: _834  and  _835
REMARK  343  A    between atoms: _835  and  _836
REMARK  344  A    between atoms: _839  and  _841
REMARK  345  A    between atoms: _841  and  _842
REMARK  346  A    between atoms: _841  and  _844
REMARK  347  A    between atoms: _844  and  _845
REMARK  348  A    between atoms: _845  and  _846
REMARK  349  A    between atoms: _846  and  _847
REMARK  350  A    between atoms: _856  and  _858
REMARK  351  A    between atoms: _858  and  _859
REMARK  352  A    between atoms: _858  and  _861
REMARK  353  A    between atoms: _861  and  _862
REMARK  354  A    between atoms: _867  and  _868
REMARK  355  A    between atoms: _870  and  _872
REMARK  356  A    between atoms: _872  and  _873
REMARK  357  A    between atoms: _872  and  _875
REMARK  358  A    between atoms: _875  and  _876
REMARK  359  A    between atoms: _878  and  _880
REMARK  360  A    between atoms: _880  and  _881
REMARK  361  A    between atoms: _880  and  _883
REMARK  362  A    between atoms: _883  and  _884
REMARK  363  A    between atoms: _889  and  _891
REMARK  364  A    between atoms: _891  and  _892
REMARK  365  A    between atoms: _891  and  _894
REMARK  366  A    between atoms: _894  and  _895
REMARK  367  A    between atoms: _900  and  _902
REMARK  368  A    between atoms: _902  and  _903
REMARK  369  A    between atoms: _902  and  _905
REMARK  370  A    between atoms: _905  and  _906
REMARK  371  A    between atoms: _906  and  _907
REMARK  372  A    between atoms: _907  and  _908
REMARK  373  A    between atoms: _908  and  _909
REMARK  374  A    between atoms: _913  and  _915
REMARK  375  A    between atoms: _915  and  _916
REMARK  376  A    between atoms: _915  and  _918
REMARK  377  A    between atoms: _918  and  _919
REMARK  378  A    between atoms: _924  and  _925
REMARK  379  A    between atoms: _927  and  _929
REMARK  380  A    between atoms: _929  and  _930
REMARK  381  A    between atoms: _933  and  _935
REMARK  382  A    between atoms: _935  and  _936
REMARK                            x       y       z     vdW  Elec       q    Type
REMARK                         _______ _______ _______ _____ _____    ______ ____
ROOT
ATOM      1  O   HOH     1      19.262  36.121  43.220  0.00  0.00    +0.000 OA
ENDROOT
TORSDOF 0
REMARK  Name = ../refined-set-2016/2xeg/2xeg_pocket.pdb
REMARK  382 active torsions:
REMARK  status: ('A' for Active; 'I' for Inactive)
REMARK    1  A    between atoms: _1  and  _3
REMARK    2  A    between atoms: _3  and  _4
REMARK    3  A    between atoms: _7  and  _9
REMARK    4  A    between atoms: _9  and  _10
REMARK    5  A    between atoms: _9  and  _12
REMARK    6  A    between atoms: _12  and  _13
REMARK    7  A    between atoms: _19  and  _21
REMARK    8  A    between atoms: _21  and  _22
REMARK    9  A    between atoms: _21  and  _24
REMARK   10  A    between atoms: _24  and  _25
REMARK   11  A    between atoms: _30  and  _31
REMARK   12  A    between atoms: _33  and  _35
REMARK   13  A    between atoms: _35  and  _36
REMARK   14  A    between atoms: _38  and  _40
REMARK   15  A    between atoms: _40  and  _41
REMARK   16  A    between atoms: _40  and  _43
REMARK   17  A    between atoms: _43  and  _44
REMARK   18  A    between atoms: _44  and  _45
REMARK   19  A    between atoms: _45  and  _46
REMARK   20  A    between atoms: _46  and  _47
REMARK   21  A    between atoms: _51  and  _53
REMARK   22  A    between atoms: _53  and  _54
REMARK   23  A    between atoms: _53  and  _56
REMARK   24  A    between atoms: _59  and  _61
REMARK   25  A    between atoms: _61  and  _62
REMARK   26  A    between atoms: _61  and  _64
REMARK   27  A    between atoms: _64  and  _65
REMARK   28  A    between atoms: _71  and  _73
REMARK   29  A    between atoms: _73  and  _74
REMARK   30  A    between atoms: _73  and  _76
REMARK   31  A    between atoms: _76  and  _77
REMARK   32  A    between atoms: _77  and  _78
REMARK   33  A    between atoms: _78  and  _79
REMARK   34  A    between atoms: _88  and  _90
REMARK   35  A    between atoms: _90  and  _91
REMARK   36  A    between atoms: _93  and  _95
REMARK   37  A    between atoms: _95  and  _96
REMARK   38  A    between atoms: _95  and  _98
REMARK   39  A    between atoms: _98  and  _99
REMARK   40  A    between atoms: _99  and  _100
REMARK   41  A    between atoms: _100  and  _101
REMARK   42  A    between atoms: _101  and  _102
REMARK   43  A    between atoms: _106  and  _108
REMARK   44  A    between atoms: _108  and  _109
REMARK   45  A    between atoms: _108  and  _111
REMARK   46  A    between atoms: _111  and  _112
REMARK   47  A    between atoms: _115  and  _117
REMARK   48  A    between atoms: _117  and  _118
REMARK   49  A    between atoms: _117  and  _120
REMARK   50  A    between atoms: _120  and  _121
REMARK   51  A    between atoms: _126  and  _127
REMARK   52  A    between atoms: _129  and  _131
REMARK   53  A    between atoms: _131  and  _132
REMARK   54  A    between atoms: _131  and  _134
REMARK   55  A    between atoms: _134  and  _135
REMARK   56  A    between atoms: _135  and  _136
REMARK   57  A    between atoms: _141  and  _143
REMARK   58  A    between atoms: _143  and  _144
REMARK   59  A    between atoms: _143  and  _146
REMARK   60  A    between atoms: _146  and  _147
REMARK   61  A    between atoms: _147  and  _148
REMARK   62  A    between atoms: _148  and  _149
REMARK   63  A    between atoms: _158  and  _160
REMARK   64  A    between atoms: _160  and  _161
REMARK   65  A    between atoms: _163  and  _165
REMARK   66  A    between atoms: _165  and  _166
REMARK   67  A    between atoms: _165  and  _168
REMARK   68  A    between atoms: _168  and  _169
REMARK   69  A    between atoms: _174  and  _176
REMARK   70  A    between atoms: _176  and  _177
REMARK   71  A    between atoms: _176  and  _179
REMARK   72  A    between atoms: _179  and  _180
REMARK   73  A    between atoms: _183  and  _185
REMARK   74  A    between atoms: _185  and  _186
REMARK   75  A    between atoms: _185  and  _188
REMARK   76  A    between atoms: _188  and  _189
REMARK   77  A    between atoms: _192  and  _194
REMARK   78  A    between atoms: _194  and  _195
REMARK   79  A    between atoms: _194  and  _197
REMARK   80  A    between atoms: _197  and  _198
REMARK   81  A    between atoms: _203  and  _205
REMARK   82  A    between atoms: _205  and  _206
REMARK   83  A    between atoms: _205  and  _208
REMARK   84  A    between atoms: _208  and  _209
REMARK   85  A    between atoms: _212  and  _214
REMARK   86  A    between atoms: _214  and  _215
REMARK   87  A    between atoms: _214  and  _217
REMARK   88  A    between atoms: _217  and  _218
REMARK   89  A    between atoms: _223  and  _225
REMARK   90  A    between atoms: _225  and  _226
REMARK   91  A    between atoms: _228  and  _230
REMARK   92  A    between atoms: _230  and  _231
REMARK   93  A    between atoms: _230  and  _233
REMARK   94  A    between atoms: _233  and  _234
REMARK   95  A    between atoms: _238  and  ZN_939
REMARK   96  A    between atoms: _239  and  _241
REMARK   97  A    between atoms: _241  and  _242
REMARK   98  A    between atoms: _241  and  _244
REMARK   99  A    between atoms: _244  and  _245
REMARK  100  A    between atoms: _248  and  _250
REMARK  101  A    between atoms: _250  and  _251
REMARK  102  A    between atoms: _250  and  _253
REMARK  103  A    between atoms: _253  and  _254
REMARK  104  A    between atoms: _264  and  _266
REMARK  105  A    between atoms: _266  and  _267
REMARK  106  A    between atoms: _266  and  _269
REMARK  107  A    between atoms: _269  and  _270
REMARK  108  A    between atoms: _273  and  _275
REMARK  109  A    between atoms: _275  and  _276
REMARK  110  A    between atoms: _275  and  _278
REMARK  111  A    between atoms: _278  and  _279
REMARK  112  A    between atoms: _279  and  _280
REMARK  113  A    between atoms: _279  and  _281
REMARK  114  A    between atoms: _280  and  ZN_939
REMARK  115  A    between atoms: _281  and  ZN_938
REMARK  116  A    between atoms: _283  and  _284
REMARK  117  A    between atoms: _289  and  _291
REMARK  118  A    between atoms: _291  and  _292
REMARK  119  A    between atoms: _295  and  _297
REMARK  120  A    between atoms: _297  and  _298
REMARK  121  A    between atoms: _297  and  _300
REMARK  122  A    between atoms: _300  and  _301
REMARK  123  A    between atoms: _301  and  _302
REMARK  124  A    between atoms: _305  and  _307
REMARK  125  A    between atoms: _307  and  _308
REMARK  126  A    between atoms: _307  and  _310
REMARK  127  A    between atoms: _310  and  _311
REMARK  128  A    between atoms: _311  and  _312
REMARK  129  A    between atoms: _312  and  _314
REMARK  130  A    between atoms: _314  and  ZN_938
REMARK  131  A    between atoms: _315  and  _317
REMARK  132  A    between atoms: _317  and  _318
REMARK  133  A    between atoms: _317  and  _320
REMARK  134  A    between atoms: _320  and  _321
REMARK  135  A    between atoms: _327  and  _329
REMARK  136  A    between atoms: _329  and  _330
REMARK  137  A    between atoms: _332  and  _334
REMARK  138  A    between atoms: _334  and  _335
REMARK  139  A    between atoms: _334  and  _337
REMARK  140  A    between atoms: _337  and  _338
REMARK  141  A    between atoms: _341  and  _343
REMARK  142  A    between atoms: _343  and  _344
REMARK  143  A    between atoms: _343  and  _346
REMARK  144  A    between atoms: _346  and  _347
REMARK  145  A    between atoms: _350  and  _352
REMARK  146  A    between atoms: _352  and  _353
REMARK  147  A    between atoms: _352  and  _355
REMARK  148  A    between atoms: _355  and  _356
REMARK  149  A    between atoms: _361  and  _363
REMARK  150  A    between atoms: _363  and  _364
REMARK  151  A    between atoms: _363  and  _366
REMARK  152  A    between atoms: _366  and  _367
REMARK  153  A    between atoms: _367  and  _369
REMARK  154  A    between atoms: _369  and  ZN_939
REMARK  155  A    between atoms: _370  and  _372
REMARK  156  A    between atoms: _372  and  _373
REMARK  157  A    between atoms: _372  and  _375
REMARK  158  A    between atoms: _375  and  _376
REMARK  159  A    between atoms: _378  and  _380
REMARK  160  A    between atoms: _380  and  _381
REMARK  161  A    between atoms: _380  and  _383
REMARK  162  A    between atoms: _383  and  _384
REMARK  163  A    between atoms: _386  and  _388
REMARK  164  A    between atoms: _388  and  _389
REMARK  165  A    between atoms: _388  and  _391
REMARK  166  A    between atoms: _391  and  _392
REMARK  167  A    between atoms: _395  and  _397
REMARK  168  A    between atoms: _397  and  _398
REMARK  169  A    between atoms: _397  and  _400
REMARK  170  A    between atoms: _400  and  _401
REMARK  171  A    between atoms: _401  and  _402
REMARK  172  A    between atoms: _405  and  _407
REMARK  173  A    between atoms: _407  and  _408
REMARK  174  A    between atoms: _407  and  _410
REMARK  175  A    between atoms: _410  and  _411
REMARK  176  A    between atoms: _416  and  _417
REMARK  177  A    between atoms: _419  and  _421
REMARK  178  A    between atoms: _421  and  _422
REMARK  179  A    between atoms: _421  and  _424
REMARK  180  A    between atoms: _424  and  _425
REMARK  181  A    between atoms: _428  and  _430
REMARK  182  A    between atoms: _430  and  _431
REMARK  183  A    between atoms: _430  and  _433
REMARK  184  A    between atoms: _433  and  _434
REMARK  185  A    between atoms: _437  and  _439
REMARK  186  A    between atoms: _439  and  _440
REMARK  187  A    between atoms: _439  and  _442
REMARK  188  A    between atoms: _442  and  _443
REMARK  189  A    between atoms: _443  and  _444
REMARK  190  A    between atoms: _444  and  _445
REMARK  191  A    between atoms: _454  and  _456
REMARK  192  A    between atoms: _456  and  _457
REMARK  193  A    between atoms: _456  and  _459
REMARK  194  A    between atoms: _462  and  _464
REMARK  195  A    between atoms: _464  and  _465
REMARK  196  A    between atoms: _464  and  _467
REMARK  197  A    between atoms: _467  and  _468
REMARK  198  A    between atoms: _471  and  _473
REMARK  199  A    between atoms: _473  and  _474
REMARK  200  A    between atoms: _473  and  _476
REMARK  201  A    between atoms: _476  and  _477
REMARK  202  A    between atoms: _487  and  _489
REMARK  203  A    between atoms: _489  and  _490
REMARK  204  A    between atoms: _489  and  _492
REMARK  205  A    between atoms: _492  and  _493
REMARK  206  A    between atoms: _493  and  _494
REMARK  207  A    between atoms: _494  and  _495
REMARK  208  A    between atoms: _495  and  _496
REMARK  209  A    between atoms: _500  and  _502
REMARK  210  A    between atoms: _502  and  _503
REMARK  211  A    between atoms: _502  and  _505
REMARK  212  A    between atoms: _505  and  _506
REMARK  213  A    between atoms: _509  and  _510
REMARK  214  A    between atoms: _516  and  _517
REMARK  215  A    between atoms: _522  and  _524
REMARK  216  A    between atoms: _524  and  _525
REMARK  217  A    between atoms: _524  and  _527
REMARK  218  A    between atoms: _527  and  _528
REMARK  219  A    between atoms: _528  and  _529
REMARK  220  A    between atoms: _529  and  _530
REMARK  221  A    between atoms: _539  and  _541
REMARK  222  A    between atoms: _541  and  _542
REMARK  223  A    between atoms: _541  and  _544
REMARK  224  A    between atoms: _544  and  _545
REMARK  225  A    between atoms: _548  and  _550
REMARK  226  A    between atoms: _550  and  _551
REMARK  227  A    between atoms: _550  and  _553
REMARK  228  A    between atoms: _553  and  _554
REMARK  229  A    between atoms: _556  and  _558
REMARK  230  A    between atoms: _558  and  _559
REMARK  231  A    between atoms: _558  and  _561
REMARK  232  A    between atoms: _561  and  _562
REMARK  233  A    between atoms: _562  and  _563
REMARK  234  A    between atoms: _563  and  _564
REMARK  235  A    between atoms: _564  and  _565
REMARK  236  A    between atoms: _569  and  _571
REMARK  237  A    between atoms: _571  and  _572
REMARK  238  A    between atoms: _571  and  _574
REMARK  239  A    between atoms: _574  and  _575
REMARK  240  A    between atoms: _578  and  _580
REMARK  241  A    between atoms: _580  and  _581
REMARK  242  A    between atoms: _583  and  _585
REMARK  243  A    between atoms: _585  and  _586
REMARK  244  A    between atoms: _585  and  _588
REMARK  245  A    between atoms: _588  and  _589
REMARK  246  A    between atoms: _591  and  _593
REMARK  247  A    between atoms: _593  and  _594
REMARK  248  A    between atoms: _596  and  _598
REMARK  249  A    between atoms: _598  and  _599
REMARK  250  A    between atoms: _598  and  _601
REMARK  251  A    between atoms: _601  and  _602
REMARK  252  A    between atoms: _607  and  _609
REMARK  253  A    between atoms: _609  and  _610
REMARK  254  A    between atoms: _609  and  _612
REMARK  255  A    between atoms: _612  and  _613
REMARK  256  A    between atoms: _616  and  _618
REMARK  257  A    between atoms: _618  and  _619
REMARK  258  A    between atoms: _618  and  _621
REMARK  259  A    between atoms: _621  and  _622
REMARK  260  A    between atoms: _628  and  _630
REMARK  261  A    between atoms: _630  and  _631
REMARK  262  A    between atoms: _630  and  _633
REMARK  263  A    between atoms: _633  and  _634
REMARK  264  A    between atoms: _634  and  _635
REMARK  265  A    between atoms: _638  and  _640
REMARK  266  A    between atoms: _640  and  _641
REMARK  267  A    between atoms: _640  and  _643
REMARK  268  A    between atoms: _643  and  _644
REMARK  269  A    between atoms: _644  and  _645
REMARK  270  A    between atoms: _645  and  _646
REMARK  271  A    between atoms: _655  and  _657
REMARK  272  A    between atoms: _657  and  _658
REMARK  273  A    between atoms: _657  and  _660
REMARK  274  A    between atoms: _660  and  _661
REMARK  275  A    between atoms: _661  and  _662
REMARK  276  A    between atoms: _662  and  _663
REMARK  277  A    between atoms: _672  and  _674
REMARK  278  A    between atoms: _674  and  _675
REMARK  279  A    between atoms: _674  and  _677
REMARK  280  A    between atoms: _677  and  _678
REMARK  281  A    between atoms: _683  and  _684
REMARK  282  A    between atoms: _686  and  _688
REMARK  283  A    between atoms: _688  and  _689
REMARK  284  A    between atoms: _688  and  _691
REMARK  285  A    between atoms: _691  and  _692
REMARK  286  A    between atoms: _695  and  _697
REMARK  287  A    between atoms: _697  and  _698
REMARK  288  A    between atoms: _697  and  _700
REMARK  289  A    between atoms: _700  and  _701
REMARK  290  A    between atoms: _701  and  _702
REMARK  291  A    between atoms: _702  and  _703
REMARK  292  A    between atoms: _703  and  _704
REMARK  293  A    between atoms: _708  and  _710
REMARK  294  A    between atoms: _710  and  _711
REMARK  295  A    between atoms: _710  and  _713
REMARK  296  A    between atoms: _713  and  _714
REMARK  297  A    between atoms: _719  and  _721
REMARK  298  A    between atoms: _721  and  _722
REMARK  299  A    between atoms: _721  and  _724
REMARK  300  A    between atoms: _724  and  _725
REMARK  301  A    between atoms: _735  and  _737
REMARK  302  A    between atoms: _737  and  _738
REMARK  303  A    between atoms: _737  and  _740
REMARK  304  A    between atoms: _740  and  _741
REMARK  305  A    between atoms: _741  and  _742
REMARK  306  A    between atoms: _745  and  _747
REMARK  307  A    between atoms: _747  and  _748
REMARK  308  A    between atoms: _747  and  _750
REMARK  309  A    between atoms: _750  and  _751
REMARK  310  A    between atoms: _754  and  _756
REMARK  311  A    between atoms: _756  and  _757
REMARK  312  A    between atoms: _756  and  _759
REMARK  313  A    between atoms: _759  and  _760
REMARK  314  A    between atoms: _765  and  _767
REMARK  315  A    between atoms: _767  and  _768
REMARK  316  A    between atoms: _767  and  _770
REMARK  317  A    between atoms: _770  and  _771
REMARK  318  A    between atoms: _777  and  _779
REMARK  319  A    between atoms: _779  and  _780
REMARK  320  A    between atoms: _779  and  _782
REMARK  321  A    between atoms: _782  and  _783
REMARK  322  A    between atoms: _785  and  _787
REMARK  323  A    between atoms: _787  and  _788
REMARK  324  A    between atoms: _790  and  _792
REMARK  325  A    between atoms: _792  and  _793
REMARK  326  A    between atoms: _792  and  _795
REMARK  327  A    between atoms: _795  and  _796
REMARK  328  A    between atoms: _801  and  _802
REMARK  329  A    between atoms: _804  and  _806
REMARK  330  A    between atoms: _806  and  _807
REMARK  331  A    between atoms: _806  and  _809
REMARK  332  A    between atoms: _809  and  _810
REMARK  333  A    between atoms: _815  and  _816
REMARK  334  A    between atoms: _818  and  _820
REMARK  335  A    between atoms: _820  and  _821
REMARK  336  A    between atoms: _820  and  _823
REMARK  337  A    between atoms: _823  and  _824
REMARK  338  A    between atoms: _828  and  ZN_938
REMARK  339  A    between atoms: _829  and  _831
REMARK  340  A    between atoms: _831  and  _832
REMARK  341  A    between atoms: _831  and  _834
REMARK  342  A    between atoms: _834  and  _835
REMARK  343  A    between atoms: _835  and  _836
REMARK  344  A    between atoms: _839  and  _841
REMARK  345  A    between atoms: _841  and  _842
REMARK  346  A    between atoms: _841  and  _844
REMARK  347  A    between atoms: _844  and  _845
REMARK  348  A    between atoms: _845  and  _846
REMARK  349  A    between atoms: _846  and  _847
REMARK  350  A    between atoms: _856  and  _858
REMARK  351  A    between atoms: _858  and  _859
REMARK  352  A    between atoms: _858  and  _861
REMARK  353  A    between atoms: _861  and  _862
REMARK  354  A    between atoms: _867  and  _868
REMARK  355  A    between atoms: _870  and  _872
REMARK  356  A    between atoms: _872  and  _873
REMARK  357  A    between atoms: _872  and  _875
REMARK  358  A    between atoms: _875  and  _876
REMARK  359  A    between atoms: _878  and  _880
REMARK  360  A    between atoms: _880  and  _881
REMARK  361  A    between atoms: _880  and  _883
REMARK  362  A    between atoms: _883  and  _884
REMARK  363  A    between atoms: _889  and  _891
REMARK  364  A    between atoms: _891  and  _892
REMARK  365  A    between atoms: _891  and  _894
REMARK  366  A    between atoms: _894  and  _895
REMARK  367  A    between atoms: _900  and  _902
REMARK  368  A    between atoms: _902  and  _903
REMARK  369  A    between atoms: _902  and  _905
REMARK  370  A    between atoms: _905  and  _906
REMARK  371  A    between atoms: _906  and  _907
REMARK  372  A    between atoms: _907  and  _908
REMARK  373  A    between atoms: _908  and  _909
REMARK  374  A    between atoms: _913  and  _915
REMARK  375  A    between atoms: _915  and  _916
REMARK  376  A    between atoms: _915  and  _918
REMARK  377  A    between atoms: _918  and  _919
REMARK  378  A    between atoms: _924  and  _925
REMARK  379  A    between atoms: _927  and  _929
REMARK  380  A    between atoms: _929  and  _930
REMARK  381  A    between atoms: _933  and  _935
REMARK  382  A    between atoms: _935  and  _936
REMARK                            x       y       z     vdW  Elec       q    Type
REMARK                         _______ _______ _______ _____ _____    ______ ____
ROOT
ATOM      1  O   HOH     1      14.153  54.704  37.472  0.00  0.00    +0.000 OA
ENDROOT
TORSDOF 0
REMARK  Name = ../refined-set-2016/2xeg/2xeg_pocket.pdb
REMARK  382 active torsions:
REMARK  status: ('A' for Active; 'I' for Inactive)
REMARK    1  A    between atoms: _1  and  _3
REMARK    2  A    between atoms: _3  and  _4
REMARK    3  A    between atoms: _7  and  _9
REMARK    4  A    between atoms: _9  and  _10
REMARK    5  A    between atoms: _9  and  _12
REMARK    6  A    between atoms: _12  and  _13
REMARK    7  A    between atoms: _19  and  _21
REMARK    8  A    between atoms: _21  and  _22
REMARK    9  A    between atoms: _21  and  _24
REMARK   10  A    between atoms: _24  and  _25
REMARK   11  A    between atoms: _30  and  _31
REMARK   12  A    between atoms: _33  and  _35
REMARK   13  A    between atoms: _35  and  _36
REMARK   14  A    between atoms: _38  and  _40
REMARK   15  A    between atoms: _40  and  _41
REMARK   16  A    between atoms: _40  and  _43
REMARK   17  A    between atoms: _43  and  _44
REMARK   18  A    between atoms: _44  and  _45
REMARK   19  A    between atoms: _45  and  _46
REMARK   20  A    between atoms: _46  and  _47
REMARK   21  A    between atoms: _51  and  _53
REMARK   22  A    between atoms: _53  and  _54
REMARK   23  A    between atoms: _53  and  _56
REMARK   24  A    between atoms: _59  and  _61
REMARK   25  A    between atoms: _61  and  _62
REMARK   26  A    between atoms: _61  and  _64
REMARK   27  A    between atoms: _64  and  _65
REMARK   28  A    between atoms: _71  and  _73
REMARK   29  A    between atoms: _73  and  _74
REMARK   30  A    between atoms: _73  and  _76
REMARK   31  A    between atoms: _76  and  _77
REMARK   32  A    between atoms: _77  and  _78
REMARK   33  A    between atoms: _78  and  _79
REMARK   34  A    between atoms: _88  and  _90
REMARK   35  A    between atoms: _90  and  _91
REMARK   36  A    between atoms: _93  and  _95
REMARK   37  A    between atoms: _95  and  _96
REMARK   38  A    between atoms: _95  and  _98
REMARK   39  A    between atoms: _98  and  _99
REMARK   40  A    between atoms: _99  and  _100
REMARK   41  A    between atoms: _100  and  _101
REMARK   42  A    between atoms: _101  and  _102
REMARK   43  A    between atoms: _106  and  _108
REMARK   44  A    between atoms: _108  and  _109
REMARK   45  A    between atoms: _108  and  _111
REMARK   46  A    between atoms: _111  and  _112
REMARK   47  A    between atoms: _115  and  _117
REMARK   48  A    between atoms: _117  and  _118
REMARK   49  A    between atoms: _117  and  _120
REMARK   50  A    between atoms: _120  and  _121
REMARK   51  A    between atoms: _126  and  _127
REMARK   52  A    between atoms: _129  and  _131
REMARK   53  A    between atoms: _131  and  _132
REMARK   54  A    between atoms: _131  and  _134
REMARK   55  A    between atoms: _134  and  _135
REMARK   56  A    between atoms: _135  and  _136
REMARK   57  A    between atoms: _141  and  _143
REMARK   58  A    between atoms: _143  and  _144
REMARK   59  A    between atoms: _143  and  _146
REMARK   60  A    between atoms: _146  and  _147
REMARK   61  A    between atoms: _147  and  _148
REMARK   62  A    between atoms: _148  and  _149
REMARK   63  A    between atoms: _158  and  _160
REMARK   64  A    between atoms: _160  and  _161
REMARK   65  A    between atoms: _163  and  _165
REMARK   66  A    between atoms: _165  and  _166
REMARK   67  A    between atoms: _165  and  _168
REMARK   68  A    between atoms: _168  and  _169
REMARK   69  A    between atoms: _174  and  _176
REMARK   70  A    between atoms: _176  and  _177
REMARK   71  A    between atoms: _176  and  _179
REMARK   72  A    between atoms: _179  and  _180
REMARK   73  A    between atoms: _183  and  _185
REMARK   74  A    between atoms: _185  and  _186
REMARK   75  A    between atoms: _185  and  _188
REMARK   76  A    between atoms: _188  and  _189
REMARK   77  A    between atoms: _192  and  _194
REMARK   78  A    between atoms: _194  and  _195
REMARK   79  A    between atoms: _194  and  _197
REMARK   80  A    between atoms: _197  and  _198
REMARK   81  A    between atoms: _203  and  _205
REMARK   82  A    between atoms: _205  and  _206
REMARK   83  A    between atoms: _205  and  _208
REMARK   84  A    between atoms: _208  and  _209
REMARK   85  A    between atoms: _212  and  _214
REMARK   86  A    between atoms: _214  and  _215
REMARK   87  A    between atoms: _214  and  _217
REMARK   88  A    between atoms: _217  and  _218
REMARK   89  A    between atoms: _223  and  _225
REMARK   90  A    between atoms: _225  and  _226
REMARK   91  A    between atoms: _228  and  _230
REMARK   92  A    between atoms: _230  and  _231
REMARK   93  A    between atoms: _230  and  _233
REMARK   94  A    between atoms: _233  and  _234
REMARK   95  A    between atoms: _238  and  ZN_939
REMARK   96  A    between atoms: _239  and  _241
REMARK   97  A    between atoms: _241  and  _242
REMARK   98  A    between atoms: _241  and  _244
REMARK   99  A    between atoms: _244  and  _245
REMARK  100  A    between atoms: _248  and  _250
REMARK  101  A    between atoms: _250  and  _251
REMARK  102  A    between atoms: _250  and  _253
REMARK  103  A    between atoms: _253  and  _254
REMARK  104  A    between atoms: _264  and  _266
REMARK  105  A    between atoms: _266  and  _267
REMARK  106  A    between atoms: _266  and  _269
REMARK  107  A    between atoms: _269  and  _270
REMARK  108  A    between atoms: _273  and  _275
REMARK  109  A    between atoms: _275  and  _276
REMARK  110  A    between atoms: _275  and  _278
REMARK  111  A    between atoms: _278  and  _279
REMARK  112  A    between atoms: _279  and  _280
REMARK  113  A    between atoms: _279  and  _281
REMARK  114  A    between atoms: _280  and  ZN_939
REMARK  115  A    between atoms: _281  and  ZN_938
REMARK  116  A    between atoms: _283  and  _284
REMARK  117  A    between atoms: _289  and  _291
REMARK  118  A    between atoms: _291  and  _292
REMARK  119  A    between atoms: _295  and  _297
REMARK  120  A    between atoms: _297  and  _298
REMARK  121  A    between atoms: _297  and  _300
REMARK  122  A    between atoms: _300  and  _301
REMARK  123  A    between atoms: _301  and  _302
REMARK  124  A    between atoms: _305  and  _307
REMARK  125  A    between atoms: _307  and  _308
REMARK  126  A    between atoms: _307  and  _310
REMARK  127  A    between atoms: _310  and  _311
REMARK  128  A    between atoms: _311  and  _312
REMARK  129  A    between atoms: _312  and  _314
REMARK  130  A    between atoms: _314  and  ZN_938
REMARK  131  A    between atoms: _315  and  _317
REMARK  132  A    between atoms: _317  and  _318
REMARK  133  A    between atoms: _317  and  _320
REMARK  134  A    between atoms: _320  and  _321
REMARK  135  A    between atoms: _327  and  _329
REMARK  136  A    between atoms: _329  and  _330
REMARK  137  A    between atoms: _332  and  _334
REMARK  138  A    between atoms: _334  and  _335
REMARK  139  A    between atoms: _334  and  _337
REMARK  140  A    between atoms: _337  and  _338
REMARK  141  A    between atoms: _341  and  _343
REMARK  142  A    between atoms: _343  and  _344
REMARK  143  A    between atoms: _343  and  _346
REMARK  144  A    between atoms: _346  and  _347
REMARK  145  A    between atoms: _350  and  _352
REMARK  146  A    between atoms: _352  and  _353
REMARK  147  A    between atoms: _352  and  _355
REMARK  148  A    between atoms: _355  and  _356
REMARK  149  A    between atoms: _361  and  _363
REMARK  150  A    between atoms: _363  and  _364
REMARK  151  A    between atoms: _363  and  _366
REMARK  152  A    between atoms: _366  and  _367
REMARK  153  A    between atoms: _367  and  _369
REMARK  154  A    between atoms: _369  and  ZN_939
REMARK  155  A    between atoms: _370  and  _372
REMARK  156  A    between atoms: _372  and  _373
REMARK  157  A    between atoms: _372  and  _375
REMARK  158  A    between atoms: _375  and  _376
REMARK  159  A    between atoms: _378  and  _380
REMARK  160  A    between atoms: _380  and  _381
REMARK  161  A    between atoms: _380  and  _383
REMARK  162  A    between atoms: _383  and  _384
REMARK  163  A    between atoms: _386  and  _388
REMARK  164  A    between atoms: _388  and  _389
REMARK  165  A    between atoms: _388  and  _391
REMARK  166  A    between atoms: _391  and  _392
REMARK  167  A    between atoms: _395  and  _397
REMARK  168  A    between atoms: _397  and  _398
REMARK  169  A    between atoms: _397  and  _400
REMARK  170  A    between atoms: _400  and  _401
REMARK  171  A    between atoms: _401  and  _402
REMARK  172  A    between atoms: _405  and  _407
REMARK  173  A    between atoms: _407  and  _408
REMARK  174  A    between atoms: _407  and  _410
REMARK  175  A    between atoms: _410  and  _411
REMARK  176  A    between atoms: _416  and  _417
REMARK  177  A    between atoms: _419  and  _421
REMARK  178  A    between atoms: _421  and  _422
REMARK  179  A    between atoms: _421  and  _424
REMARK  180  A    between atoms: _424  and  _425
REMARK  181  A    between atoms: _428  and  _430
REMARK  182  A    between atoms: _430  and  _431
REMARK  183  A    between atoms: _430  and  _433
REMARK  184  A    between atoms: _433  and  _434
REMARK  185  A    between atoms: _437  and  _439
REMARK  186  A    between atoms: _439  and  _440
REMARK  187  A    between atoms: _439  and  _442
REMARK  188  A    between atoms: _442  and  _443
REMARK  189  A    between atoms: _443  and  _444
REMARK  190  A    between atoms: _444  and  _445
REMARK  191  A    between atoms: _454  and  _456
REMARK  192  A    between atoms: _456  and  _457
REMARK  193  A    between atoms: _456  and  _459
REMARK  194  A    between atoms: _462  and  _464
REMARK  195  A    between atoms: _464  and  _465
REMARK  196  A    between atoms: _464  and  _467
REMARK  197  A    between atoms: _467  and  _468
REMARK  198  A    between atoms: _471  and  _473
REMARK  199  A    between atoms: _473  and  _474
REMARK  200  A    between atoms: _473  and  _476
REMARK  201  A    between atoms: _476  and  _477
REMARK  202  A    between atoms: _487  and  _489
REMARK  203  A    between atoms: _489  and  _490
REMARK  204  A    between atoms: _489  and  _492
REMARK  205  A    between atoms: _492  and  _493
REMARK  206  A    between atoms: _493  and  _494
REMARK  207  A    between atoms: _494  and  _495
REMARK  208  A    between atoms: _495  and  _496
REMARK  209  A    between atoms: _500  and  _502
REMARK  210  A    between atoms: _502  and  _503
REMARK  211  A    between atoms: _502  and  _505
REMARK  212  A    between atoms: _505  and  _506
REMARK  213  A    between atoms: _509  and  _510
REMARK  214  A    between atoms: _516  and  _517
REMARK  215  A    between atoms: _522  and  _524
REMARK  216  A    between atoms: _524  and  _525
REMARK  217  A    between atoms: _524  and  _527
REMARK  218  A    between atoms: _527  and  _528
REMARK  219  A    between atoms: _528  and  _529
REMARK  220  A    between atoms: _529  and  _530
REMARK  221  A    between atoms: _539  and  _541
REMARK  222  A    between atoms: _541  and  _542
REMARK  223  A    between atoms: _541  and  _544
REMARK  224  A    between atoms: _544  and  _545
REMARK  225  A    between atoms: _548  and  _550
REMARK  226  A    between atoms: _550  and  _551
REMARK  227  A    between atoms: _550  and  _553
REMARK  228  A    between atoms: _553  and  _554
REMARK  229  A    between atoms: _556  and  _558
REMARK  230  A    between atoms: _558  and  _559
REMARK  231  A    between atoms: _558  and  _561
REMARK  232  A    between atoms: _561  and  _562
REMARK  233  A    between atoms: _562  and  _563
REMARK  234  A    between atoms: _563  and  _564
REMARK  235  A    between atoms: _564  and  _565
REMARK  236  A    between atoms: _569  and  _571
REMARK  237  A    between atoms: _571  and  _572
REMARK  238  A    between atoms: _571  and  _574
REMARK  239  A    between atoms: _574  and  _575
REMARK  240  A    between atoms: _578  and  _580
REMARK  241  A    between atoms: _580  and  _581
REMARK  242  A    between atoms: _583  and  _585
REMARK  243  A    between atoms: _585  and  _586
REMARK  244  A    between atoms: _585  and  _588
REMARK  245  A    between atoms: _588  and  _589
REMARK  246  A    between atoms: _591  and  _593
REMARK  247  A    between atoms: _593  and  _594
REMARK  248  A    between atoms: _596  and  _598
REMARK  249  A    between atoms: _598  and  _599
REMARK  250  A    between atoms: _598  and  _601
REMARK  251  A    between atoms: _601  and  _602
REMARK  252  A    between atoms: _607  and  _609
REMARK  253  A    between atoms: _609  and  _610
REMARK  254  A    between atoms: _609  and  _612
REMARK  255  A    between atoms: _612  and  _613
REMARK  256  A    between atoms: _616  and  _618
REMARK  257  A    between atoms: _618  and  _619
REMARK  258  A    between atoms: _618  and  _621
REMARK  259  A    between atoms: _621  and  _622
REMARK  260  A    between atoms: _628  and  _630
REMARK  261  A    between atoms: _630  and  _631
REMARK  262  A    between atoms: _630  and  _633
REMARK  263  A    between atoms: _633  and  _634
REMARK  264  A    between atoms: _634  and  _635
REMARK  265  A    between atoms: _638  and  _640
REMARK  266  A    between atoms: _640  and  _641
REMARK  267  A    between atoms: _640  and  _643
REMARK  268  A    between atoms: _643  and  _644
REMARK  269  A    between atoms: _644  and  _645
REMARK  270  A    between atoms: _645  and  _646
REMARK  271  A    between atoms: _655  and  _657
REMARK  272  A    between atoms: _657  and  _658
REMARK  273  A    between atoms: _657  and  _660
REMARK  274  A    between atoms: _660  and  _661
REMARK  275  A    between atoms: _661  and  _662
REMARK  276  A    between atoms: _662  and  _663
REMARK  277  A    between atoms: _672  and  _674
REMARK  278  A    between atoms: _674  and  _675
REMARK  279  A    between atoms: _674  and  _677
REMARK  280  A    between atoms: _677  and  _678
REMARK  281  A    between atoms: _683  and  _684
REMARK  282  A    between atoms: _686  and  _688
REMARK  283  A    between atoms: _688  and  _689
REMARK  284  A    between atoms: _688  and  _691
REMARK  285  A    between atoms: _691  and  _692
REMARK  286  A    between atoms: _695  and  _697
REMARK  287  A    between atoms: _697  and  _698
REMARK  288  A    between atoms: _697  and  _700
REMARK  289  A    between atoms: _700  and  _701
REMARK  290  A    between atoms: _701  and  _702
REMARK  291  A    between atoms: _702  and  _703
REMARK  292  A    between atoms: _703  and  _704
REMARK  293  A    between atoms: _708  and  _710
REMARK  294  A    between atoms: _710  and  _711
REMARK  295  A    between atoms: _710  and  _713
REMARK  296  A    between atoms: _713  and  _714
REMARK  297  A    between atoms: _719  and  _721
REMARK  298  A    between atoms: _721  and  _722
REMARK  299  A    between atoms: _721  and  _724
REMARK  300  A    between atoms: _724  and  _725
REMARK  301  A    between atoms: _735  and  _737
REMARK  302  A    between atoms: _737  and  _738
REMARK  303  A    between atoms: _737  and  _740
REMARK  304  A    between atoms: _740  and  _741
REMARK  305  A    between atoms: _741  and  _742
REMARK  306  A    between atoms: _745  and  _747
REMARK  307  A    between atoms: _747  and  _748
REMARK  308  A    between atoms: _747  and  _750
REMARK  309  A    between atoms: _750  and  _751
REMARK  310  A    between atoms: _754  and  _756
REMARK  311  A    between atoms: _756  and  _757
REMARK  312  A    between atoms: _756  and  _759
REMARK  313  A    between atoms: _759  and  _760
REMARK  314  A    between atoms: _765  and  _767
REMARK  315  A    between atoms: _767  and  _768
REMARK  316  A    between atoms: _767  and  _770
REMARK  317  A    between atoms: _770  and  _771
REMARK  318  A    between atoms: _777  and  _779
REMARK  319  A    between atoms: _779  and  _780
REMARK  320  A    between atoms: _779  and  _782
REMARK  321  A    between atoms: _782  and  _783
REMARK  322  A    between atoms: _785  and  _787
REMARK  323  A    between atoms: _787  and  _788
REMARK  324  A    between atoms: _790  and  _792
REMARK  325  A    between atoms: _792  and  _793
REMARK  326  A    between atoms: _792  and  _795
REMARK  327  A    between atoms: _795  and  _796
REMARK  328  A    between atoms: _801  and  _802
REMARK  329  A    between atoms: _804  and  _806
REMARK  330  A    between atoms: _806  and  _807
REMARK  331  A    between atoms: _806  and  _809
REMARK  332  A    between atoms: _809  and  _810
REMARK  333  A    between atoms: _815  and  _816
REMARK  334  A    between atoms: _818  and  _820
REMARK  335  A    between atoms: _820  and  _821
REMARK  336  A    between atoms: _820  and  _823
REMARK  337  A    between atoms: _823  and  _824
REMARK  338  A    between atoms: _828  and  ZN_938
REMARK  339  A    between atoms: _829  and  _831
REMARK  340  A    between atoms: _831  and  _832
REMARK  341  A    between atoms: _831  and  _834
REMARK  342  A    between atoms: _834  and  _835
REMARK  343  A    between atoms: _835  and  _836
REMARK  344  A    between atoms: _839  and  _841
REMARK  345  A    between atoms: _841  and  _842
REMARK  346  A    between atoms: _841  and  _844
REMARK  347  A    between atoms: _844  and  _845
REMARK  348  A    between atoms: _845  and  _846
REMARK  349  A    between atoms: _846  and  _847
REMARK  350  A    between atoms: _856  and  _858
REMARK  351  A    between atoms: _858  and  _859
REMARK  352  A    between atoms: _858  and  _861
REMARK  353  A    between atoms: _861  and  _862
REMARK  354  A    between atoms: _867  and  _868
REMARK  355  A    between atoms: _870  and  _872
REMARK  356  A    between atoms: _872  and  _873
REMARK  357  A    between atoms: _872  and  _875
REMARK  358  A    between atoms: _875  and  _876
REMARK  359  A    between atoms: _878  and  _880
REMARK  360  A    between atoms: _880  and  _881
REMARK  361  A    between atoms: _880  and  _883
REMARK  362  A    between atoms: _883  and  _884
REMARK  363  A    between atoms: _889  and  _891
REMARK  364  A    between atoms: _891  and  _892
REMARK  365  A    between atoms: _891  and  _894
REMARK  366  A    between atoms: _894  and  _895
REMARK  367  A    between atoms: _900  and  _902
REMARK  368  A    between atoms: _902  and  _903
REMARK  369  A    between atoms: _902  and  _905
REMARK  370  A    between atoms: _905  and  _906
REMARK  371  A    between atoms: _906  and  _907
REMARK  372  A    between atoms: _907  and  _908
REMARK  373  A    between atoms: _908  and  _909
REMARK  374  A    between atoms: _913  and  _915
REMARK  375  A    between atoms: _915  and  _916
REMARK  376  A    between atoms: _915  and  _918
REMARK  377  A    between atoms: _918  and  _919
REMARK  378  A    between atoms: _924  and  _925
REMARK  379  A    between atoms: _927  and  _929
REMARK  380  A    between atoms: _929  and  _930
REMARK  381  A    between atoms: _933  and  _935
REMARK  382  A    between atoms: _935  and  _936
REMARK                            x       y       z     vdW  Elec       q    Type
REMARK                         _______ _______ _______ _____ _____    ______ ____
ROOT
ATOM      1  O   HOH     1      25.396  56.053  37.228  0.00  0.00    +0.000 OA
ENDROOT
TORSDOF 0
REMARK  Name = ../refined-set-2016/2xeg/2xeg_pocket.pdb
REMARK  382 active torsions:
REMARK  status: ('A' for Active; 'I' for Inactive)
REMARK    1  A    between atoms: _1  and  _3
REMARK    2  A    between atoms: _3  and  _4
REMARK    3  A    between atoms: _7  and  _9
REMARK    4  A    between atoms: _9  and  _10
REMARK    5  A    between atoms: _9  and  _12
REMARK    6  A    between atoms: _12  and  _13
REMARK    7  A    between atoms: _19  and  _21
REMARK    8  A    between atoms: _21  and  _22
REMARK    9  A    between atoms: _21  and  _24
REMARK   10  A    between atoms: _24  and  _25
REMARK   11  A    between atoms: _30  and  _31
REMARK   12  A    between atoms: _33  and  _35
REMARK   13  A    between atoms: _35  and  _36
REMARK   14  A    between atoms: _38  and  _40
REMARK   15  A    between atoms: _40  and  _41
REMARK   16  A    between atoms: _40  and  _43
REMARK   17  A    between atoms: _43  and  _44
REMARK   18  A    between atoms: _44  and  _45
REMARK   19  A    between atoms: _45  and  _46
REMARK   20  A    between atoms: _46  and  _47
REMARK   21  A    between atoms: _51  and  _53
REMARK   22  A    between atoms: _53  and  _54
REMARK   23  A    between atoms: _53  and  _56
REMARK   24  A    between atoms: _59  and  _61
REMARK   25  A    between atoms: _61  and  _62
REMARK   26  A    between atoms: _61  and  _64
REMARK   27  A    between atoms: _64  and  _65
REMARK   28  A    between atoms: _71  and  _73
REMARK   29  A    between atoms: _73  and  _74
REMARK   30  A    between atoms: _73  and  _76
REMARK   31  A    between atoms: _76  and  _77
REMARK   32  A    between atoms: _77  and  _78
REMARK   33  A    between atoms: _78  and  _79
REMARK   34  A    between atoms: _88  and  _90
REMARK   35  A    between atoms: _90  and  _91
REMARK   36  A    between atoms: _93  and  _95
REMARK   37  A    between atoms: _95  and  _96
REMARK   38  A    between atoms: _95  and  _98
REMARK   39  A    between atoms: _98  and  _99
REMARK   40  A    between atoms: _99  and  _100
REMARK   41  A    between atoms: _100  and  _101
REMARK   42  A    between atoms: _101  and  _102
REMARK   43  A    between atoms: _106  and  _108
REMARK   44  A    between atoms: _108  and  _109
REMARK   45  A    between atoms: _108  and  _111
REMARK   46  A    between atoms: _111  and  _112
REMARK   47  A    between atoms: _115  and  _117
REMARK   48  A    between atoms: _117  and  _118
REMARK   49  A    between atoms: _117  and  _120
REMARK   50  A    between atoms: _120  and  _121
REMARK   51  A    between atoms: _126  and  _127
REMARK   52  A    between atoms: _129  and  _131
REMARK   53  A    between atoms: _131  and  _132
REMARK   54  A    between atoms: _131  and  _134
REMARK   55  A    between atoms: _134  and  _135
REMARK   56  A    between atoms: _135  and  _136
REMARK   57  A    between atoms: _141  and  _143
REMARK   58  A    between atoms: _143  and  _144
REMARK   59  A    between atoms: _143  and  _146
REMARK   60  A    between atoms: _146  and  _147
REMARK   61  A    between atoms: _147  and  _148
REMARK   62  A    between atoms: _148  and  _149
REMARK   63  A    between atoms: _158  and  _160
REMARK   64  A    between atoms: _160  and  _161
REMARK   65  A    between atoms: _163  and  _165
REMARK   66  A    between atoms: _165  and  _166
REMARK   67  A    between atoms: _165  and  _168
REMARK   68  A    between atoms: _168  and  _169
REMARK   69  A    between atoms: _174  and  _176
REMARK   70  A    between atoms: _176  and  _177
REMARK   71  A    between atoms: _176  and  _179
REMARK   72  A    between atoms: _179  and  _180
REMARK   73  A    between atoms: _183  and  _185
REMARK   74  A    between atoms: _185  and  _186
REMARK   75  A    between atoms: _185  and  _188
REMARK   76  A    between atoms: _188  and  _189
REMARK   77  A    between atoms: _192  and  _194
REMARK   78  A    between atoms: _194  and  _195
REMARK   79  A    between atoms: _194  and  _197
REMARK   80  A    between atoms: _197  and  _198
REMARK   81  A    between atoms: _203  and  _205
REMARK   82  A    between atoms: _205  and  _206
REMARK   83  A    between atoms: _205  and  _208
REMARK   84  A    between atoms: _208  and  _209
REMARK   85  A    between atoms: _212  and  _214
REMARK   86  A    between atoms: _214  and  _215
REMARK   87  A    between atoms: _214  and  _217
REMARK   88  A    between atoms: _217  and  _218
REMARK   89  A    between atoms: _223  and  _225
REMARK   90  A    between atoms: _225  and  _226
REMARK   91  A    between atoms: _228  and  _230
REMARK   92  A    between atoms: _230  and  _231
REMARK   93  A    between atoms: _230  and  _233
REMARK   94  A    between atoms: _233  and  _234
REMARK   95  A    between atoms: _238  and  ZN_939
REMARK   96  A    between atoms: _239  and  _241
REMARK   97  A    between atoms: _241  and  _242
REMARK   98  A    between atoms: _241  and  _244
REMARK   99  A    between atoms: _244  and  _245
REMARK  100  A    between atoms: _248  and  _250
REMARK  101  A    between atoms: _250  and  _251
REMARK  102  A    between atoms: _250  and  _253
REMARK  103  A    between atoms: _253  and  _254
REMARK  104  A    between atoms: _264  and  _266
REMARK  105  A    between atoms: _266  and  _267
REMARK  106  A    between atoms: _266  and  _269
REMARK  107  A    between atoms: _269  and  _270
REMARK  108  A    between atoms: _273  and  _275
REMARK  109  A    between atoms: _275  and  _276
REMARK  110  A    between atoms: _275  and  _278
REMARK  111  A    between atoms: _278  and  _279
REMARK  112  A    between atoms: _279  and  _280
REMARK  113  A    between atoms: _279  and  _281
REMARK  114  A    between atoms: _280  and  ZN_939
REMARK  115  A    between atoms: _281  and  ZN_938
REMARK  116  A    between atoms: _283  and  _284
REMARK  117  A    between atoms: _289  and  _291
REMARK  118  A    between atoms: _291  and  _292
REMARK  119  A    between atoms: _295  and  _297
REMARK  120  A    between atoms: _297  and  _298
REMARK  121  A    between atoms: _297  and  _300
REMARK  122  A    between atoms: _300  and  _301
REMARK  123  A    between atoms: _301  and  _302
REMARK  124  A    between atoms: _305  and  _307
REMARK  125  A    between atoms: _307  and  _308
REMARK  126  A    between atoms: _307  and  _310
REMARK  127  A    between atoms: _310  and  _311
REMARK  128  A    between atoms: _311  and  _312
REMARK  129  A    between atoms: _312  and  _314
REMARK  130  A    between atoms: _314  and  ZN_938
REMARK  131  A    between atoms: _315  and  _317
REMARK  132  A    between atoms: _317  and  _318
REMARK  133  A    between atoms: _317  and  _320
REMARK  134  A    between atoms: _320  and  _321
REMARK  135  A    between atoms: _327  and  _329
REMARK  136  A    between atoms: _329  and  _330
REMARK  137  A    between atoms: _332  and  _334
REMARK  138  A    between atoms: _334  and  _335
REMARK  139  A    between atoms: _334  and  _337
REMARK  140  A    between atoms: _337  and  _338
REMARK  141  A    between atoms: _341  and  _343
REMARK  142  A    between atoms: _343  and  _344
REMARK  143  A    between atoms: _343  and  _346
REMARK  144  A    between atoms: _346  and  _347
REMARK  145  A    between atoms: _350  and  _352
REMARK  146  A    between atoms: _352  and  _353
REMARK  147  A    between atoms: _352  and  _355
REMARK  148  A    between atoms: _355  and  _356
REMARK  149  A    between atoms: _361  and  _363
REMARK  150  A    between atoms: _363  and  _364
REMARK  151  A    between atoms: _363  and  _366
REMARK  152  A    between atoms: _366  and  _367
REMARK  153  A    between atoms: _367  and  _369
REMARK  154  A    between atoms: _369  and  ZN_939
REMARK  155  A    between atoms: _370  and  _372
REMARK  156  A    between atoms: _372  and  _373
REMARK  157  A    between atoms: _372  and  _375
REMARK  158  A    between atoms: _375  and  _376
REMARK  159  A    between atoms: _378  and  _380
REMARK  160  A    between atoms: _380  and  _381
REMARK  161  A    between atoms: _380  and  _383
REMARK  162  A    between atoms: _383  and  _384
REMARK  163  A    between atoms: _386  and  _388
REMARK  164  A    between atoms: _388  and  _389
REMARK  165  A    between atoms: _388  and  _391
REMARK  166  A    between atoms: _391  and  _392
REMARK  167  A    between atoms: _395  and  _397
REMARK  168  A    between atoms: _397  and  _398
REMARK  169  A    between atoms: _397  and  _400
REMARK  170  A    between atoms: _400  and  _401
REMARK  171  A    between atoms: _401  and  _402
REMARK  172  A    between atoms: _405  and  _407
REMARK  173  A    between atoms: _407  and  _408
REMARK  174  A    between atoms: _407  and  _410
REMARK  175  A    between atoms: _410  and  _411
REMARK  176  A    between atoms: _416  and  _417
REMARK  177  A    between atoms: _419  and  _421
REMARK  178  A    between atoms: _421  and  _422
REMARK  179  A    between atoms: _421  and  _424
REMARK  180  A    between atoms: _424  and  _425
REMARK  181  A    between atoms: _428  and  _430
REMARK  182  A    between atoms: _430  and  _431
REMARK  183  A    between atoms: _430  and  _433
REMARK  184  A    between atoms: _433  and  _434
REMARK  185  A    between atoms: _437  and  _439
REMARK  186  A    between atoms: _439  and  _440
REMARK  187  A    between atoms: _439  and  _442
REMARK  188  A    between atoms: _442  and  _443
REMARK  189  A    between atoms: _443  and  _444
REMARK  190  A    between atoms: _444  and  _445
REMARK  191  A    between atoms: _454  and  _456
REMARK  192  A    between atoms: _456  and  _457
REMARK  193  A    between atoms: _456  and  _459
REMARK  194  A    between atoms: _462  and  _464
REMARK  195  A    between atoms: _464  and  _465
REMARK  196  A    between atoms: _464  and  _467
REMARK  197  A    between atoms: _467  and  _468
REMARK  198  A    between atoms: _471  and  _473
REMARK  199  A    between atoms: _473  and  _474
REMARK  200  A    between atoms: _473  and  _476
REMARK  201  A    between atoms: _476  and  _477
REMARK  202  A    between atoms: _487  and  _489
REMARK  203  A    between atoms: _489  and  _490
REMARK  204  A    between atoms: _489  and  _492
REMARK  205  A    between atoms: _492  and  _493
REMARK  206  A    between atoms: _493  and  _494
REMARK  207  A    between atoms: _494  and  _495
REMARK  208  A    between atoms: _495  and  _496
REMARK  209  A    between atoms: _500  and  _502
REMARK  210  A    between atoms: _502  and  _503
REMARK  211  A    between atoms: _502  and  _505
REMARK  212  A    between atoms: _505  and  _506
REMARK  213  A    between atoms: _509  and  _510
REMARK  214  A    between atoms: _516  and  _517
REMARK  215  A    between atoms: _522  and  _524
REMARK  216  A    between atoms: _524  and  _525
REMARK  217  A    between atoms: _524  and  _527
REMARK  218  A    between atoms: _527  and  _528
REMARK  219  A    between atoms: _528  and  _529
REMARK  220  A    between atoms: _529  and  _530
REMARK  221  A    between atoms: _539  and  _541
REMARK  222  A    between atoms: _541  and  _542
REMARK  223  A    between atoms: _541  and  _544
REMARK  224  A    between atoms: _544  and  _545
REMARK  225  A    between atoms: _548  and  _550
REMARK  226  A    between atoms: _550  and  _551
REMARK  227  A    between atoms: _550  and  _553
REMARK  228  A    between atoms: _553  and  _554
REMARK  229  A    between atoms: _556  and  _558
REMARK  230  A    between atoms: _558  and  _559
REMARK  231  A    between atoms: _558  and  _561
REMARK  232  A    between atoms: _561  and  _562
REMARK  233  A    between atoms: _562  and  _563
REMARK  234  A    between atoms: _563  and  _564
REMARK  235  A    between atoms: _564  and  _565
REMARK  236  A    between atoms: _569  and  _571
REMARK  237  A    between atoms: _571  and  _572
REMARK  238  A    between atoms: _571  and  _574
REMARK  239  A    between atoms: _574  and  _575
REMARK  240  A    between atoms: _578  and  _580
REMARK  241  A    between atoms: _580  and  _581
REMARK  242  A    between atoms: _583  and  _585
REMARK  243  A    between atoms: _585  and  _586
REMARK  244  A    between atoms: _585  and  _588
REMARK  245  A    between atoms: _588  and  _589
REMARK  246  A    between atoms: _591  and  _593
REMARK  247  A    between atoms: _593  and  _594
REMARK  248  A    between atoms: _596  and  _598
REMARK  249  A    between atoms: _598  and  _599
REMARK  250  A    between atoms: _598  and  _601
REMARK  251  A    between atoms: _601  and  _602
REMARK  252  A    between atoms: _607  and  _609
REMARK  253  A    between atoms: _609  and  _610
REMARK  254  A    between atoms: _609  and  _612
REMARK  255  A    between atoms: _612  and  _613
REMARK  256  A    between atoms: _616  and  _618
REMARK  257  A    between atoms: _618  and  _619
REMARK  258  A    between atoms: _618  and  _621
REMARK  259  A    between atoms: _621  and  _622
REMARK  260  A    between atoms: _628  and  _630
REMARK  261  A    between atoms: _630  and  _631
REMARK  262  A    between atoms: _630  and  _633
REMARK  263  A    between atoms: _633  and  _634
REMARK  264  A    between atoms: _634  and  _635
REMARK  265  A    between atoms: _638  and  _640
REMARK  266  A    between atoms: _640  and  _641
REMARK  267  A    between atoms: _640  and  _643
REMARK  268  A    between atoms: _643  and  _644
REMARK  269  A    between atoms: _644  and  _645
REMARK  270  A    between atoms: _645  and  _646
REMARK  271  A    between atoms: _655  and  _657
REMARK  272  A    between atoms: _657  and  _658
REMARK  273  A    between atoms: _657  and  _660
REMARK  274  A    between atoms: _660  and  _661
REMARK  275  A    between atoms: _661  and  _662
REMARK  276  A    between atoms: _662  and  _663
REMARK  277  A    between atoms: _672  and  _674
REMARK  278  A    between atoms: _674  and  _675
REMARK  279  A    between atoms: _674  and  _677
REMARK  280  A    between atoms: _677  and  _678
REMARK  281  A    between atoms: _683  and  _684
REMARK  282  A    between atoms: _686  and  _688
REMARK  283  A    between atoms: _688  and  _689
REMARK  284  A    between atoms: _688  and  _691
REMARK  285  A    between atoms: _691  and  _692
REMARK  286  A    between atoms: _695  and  _697
REMARK  287  A    between atoms: _697  and  _698
REMARK  288  A    between atoms: _697  and  _700
REMARK  289  A    between atoms: _700  and  _701
REMARK  290  A    between atoms: _701  and  _702
REMARK  291  A    between atoms: _702  and  _703
REMARK  292  A    between atoms: _703  and  _704
REMARK  293  A    between atoms: _708  and  _710
REMARK  294  A    between atoms: _710  and  _711
REMARK  295  A    between atoms: _710  and  _713
REMARK  296  A    between atoms: _713  and  _714
REMARK  297  A    between atoms: _719  and  _721
REMARK  298  A    between atoms: _721  and  _722
REMARK  299  A    between atoms: _721  and  _724
REMARK  300  A    between atoms: _724  and  _725
REMARK  301  A    between atoms: _735  and  _737
REMARK  302  A    between atoms: _737  and  _738
REMARK  303  A    between atoms: _737  and  _740
REMARK  304  A    between atoms: _740  and  _741
REMARK  305  A    between atoms: _741  and  _742
REMARK  306  A    between atoms: _745  and  _747
REMARK  307  A    between atoms: _747  and  _748
REMARK  308  A    between atoms: _747  and  _750
REMARK  309  A    between atoms: _750  and  _751
REMARK  310  A    between atoms: _754  and  _756
REMARK  311  A    between atoms: _756  and  _757
REMARK  312  A    between atoms: _756  and  _759
REMARK  313  A    between atoms: _759  and  _760
REMARK  314  A    between atoms: _765  and  _767
REMARK  315  A    between atoms: _767  and  _768
REMARK  316  A    between atoms: _767  and  _770
REMARK  317  A    between atoms: _770  and  _771
REMARK  318  A    between atoms: _777  and  _779
REMARK  319  A    between atoms: _779  and  _780
REMARK  320  A    between atoms: _779  and  _782
REMARK  321  A    between atoms: _782  and  _783
REMARK  322  A    between atoms: _785  and  _787
REMARK  323  A    between atoms: _787  and  _788
REMARK  324  A    between atoms: _790  and  _792
REMARK  325  A    between atoms: _792  and  _793
REMARK  326  A    between atoms: _792  and  _795
REMARK  327  A    between atoms: _795  and  _796
REMARK  328  A    between atoms: _801  and  _802
REMARK  329  A    between atoms: _804  and  _806
REMARK  330  A    between atoms: _806  and  _807
REMARK  331  A    between atoms: _806  and  _809
REMARK  332  A    between atoms: _809  and  _810
REMARK  333  A    between atoms: _815  and  _816
REMARK  334  A    between atoms: _818  and  _820
REMARK  335  A    between atoms: _820  and  _821
REMARK  336  A    between atoms: _820  and  _823
REMARK  337  A    between atoms: _823  and  _824
REMARK  338  A    between atoms: _828  and  ZN_938
REMARK  339  A    between atoms: _829  and  _831
REMARK  340  A    between atoms: _831  and  _832
REMARK  341  A    between atoms: _831  and  _834
REMARK  342  A    between atoms: _834  and  _835
REMARK  343  A    between atoms: _835  and  _836
REMARK  344  A    between atoms: _839  and  _841
REMARK  345  A    between atoms: _841  and  _842
REMARK  346  A    between atoms: _841  and  _844
REMARK  347  A    between atoms: _844  and  _845
REMARK  348  A    between atoms: _845  and  _846
REMARK  349  A    between atoms: _846  and  _847
REMARK  350  A    between atoms: _856  and  _858
REMARK  351  A    between atoms: _858  and  _859
REMARK  352  A    between atoms: _858  and  _861
REMARK  353  A    between atoms: _861  and  _862
REMARK  354  A    between atoms: _867  and  _868
REMARK  355  A    between atoms: _870  and  _872
REMARK  356  A    between atoms: _872  and  _873
REMARK  357  A    between atoms: _872  and  _875
REMARK  358  A    between atoms: _875  and  _876
REMARK  359  A    between atoms: _878  and  _880
REMARK  360  A    between atoms: _880  and  _881
REMARK  361  A    between atoms: _880  and  _883
REMARK  362  A    between atoms: _883  and  _884
REMARK  363  A    between atoms: _889  and  _891
REMARK  364  A    between atoms: _891  and  _892
REMARK  365  A    between atoms: _891  and  _894
REMARK  366  A    between atoms: _894  and  _895
REMARK  367  A    between atoms: _900  and  _902
REMARK  368  A    between atoms: _902  and  _903
REMARK  369  A    between atoms: _902  and  _905
REMARK  370  A    between atoms: _905  and  _906
REMARK  371  A    between atoms: _906  and  _907
REMARK  372  A    between atoms: _907  and  _908
REMARK  373  A    between atoms: _908  and  _909
REMARK  374  A    between atoms: _913  and  _915
REMARK  375  A    between atoms: _915  and  _916
REMARK  376  A    between atoms: _915  and  _918
REMARK  377  A    between atoms: _918  and  _919
REMARK  378  A    between atoms: _924  and  _925
REMARK  379  A    between atoms: _927  and  _929
REMARK  380  A    between atoms: _929  and  _930
REMARK  381  A    between atoms: _933  and  _935
REMARK  382  A    between atoms: _935  and  _936
REMARK                            x       y       z     vdW  Elec       q    Type
REMARK                         _______ _______ _______ _____ _____    ______ ____
ROOT
ATOM      1  O   HOH     1      12.004  50.033  36.428  0.00  0.00    +0.000 OA
ENDROOT
TORSDOF 0
REMARK  Name = ../refined-set-2016/2xeg/2xeg_pocket.pdb
REMARK  382 active torsions:
REMARK  status: ('A' for Active; 'I' for Inactive)
REMARK    1  A    between atoms: _1  and  _3
REMARK    2  A    between atoms: _3  and  _4
REMARK    3  A    between atoms: _7  and  _9
REMARK    4  A    between atoms: _9  and  _10
REMARK    5  A    between atoms: _9  and  _12
REMARK    6  A    between atoms: _12  and  _13
REMARK    7  A    between atoms: _19  and  _21
REMARK    8  A    between atoms: _21  and  _22
REMARK    9  A    between atoms: _21  and  _24
REMARK   10  A    between atoms: _24  and  _25
REMARK   11  A    between atoms: _30  and  _31
REMARK   12  A    between atoms: _33  and  _35
REMARK   13  A    between atoms: _35  and  _36
REMARK   14  A    between atoms: _38  and  _40
REMARK   15  A    between atoms: _40  and  _41
REMARK   16  A    between atoms: _40  and  _43
REMARK   17  A    between atoms: _43  and  _44
REMARK   18  A    between atoms: _44  and  _45
REMARK   19  A    between atoms: _45  and  _46
REMARK   20  A    between atoms: _46  and  _47
REMARK   21  A    between atoms: _51  and  _53
REMARK   22  A    between atoms: _53  and  _54
REMARK   23  A    between atoms: _53  and  _56
REMARK   24  A    between atoms: _59  and  _61
REMARK   25  A    between atoms: _61  and  _62
REMARK   26  A    between atoms: _61  and  _64
REMARK   27  A    between atoms: _64  and  _65
REMARK   28  A    between atoms: _71  and  _73
REMARK   29  A    between atoms: _73  and  _74
REMARK   30  A    between atoms: _73  and  _76
REMARK   31  A    between atoms: _76  and  _77
REMARK   32  A    between atoms: _77  and  _78
REMARK   33  A    between atoms: _78  and  _79
REMARK   34  A    between atoms: _88  and  _90
REMARK   35  A    between atoms: _90  and  _91
REMARK   36  A    between atoms: _93  and  _95
REMARK   37  A    between atoms: _95  and  _96
REMARK   38  A    between atoms: _95  and  _98
REMARK   39  A    between atoms: _98  and  _99
REMARK   40  A    between atoms: _99  and  _100
REMARK   41  A    between atoms: _100  and  _101
REMARK   42  A    between atoms: _101  and  _102
REMARK   43  A    between atoms: _106  and  _108
REMARK   44  A    between atoms: _108  and  _109
REMARK   45  A    between atoms: _108  and  _111
REMARK   46  A    between atoms: _111  and  _112
REMARK   47  A    between atoms: _115  and  _117
REMARK   48  A    between atoms: _117  and  _118
REMARK   49  A    between atoms: _117  and  _120
REMARK   50  A    between atoms: _120  and  _121
REMARK   51  A    between atoms: _126  and  _127
REMARK   52  A    between atoms: _129  and  _131
REMARK   53  A    between atoms: _131  and  _132
REMARK   54  A    between atoms: _131  and  _134
REMARK   55  A    between atoms: _134  and  _135
REMARK   56  A    between atoms: _135  and  _136
REMARK   57  A    between atoms: _141  and  _143
REMARK   58  A    between atoms: _143  and  _144
REMARK   59  A    between atoms: _143  and  _146
REMARK   60  A    between atoms: _146  and  _147
REMARK   61  A    between atoms: _147  and  _148
REMARK   62  A    between atoms: _148  and  _149
REMARK   63  A    between atoms: _158  and  _160
REMARK   64  A    between atoms: _160  and  _161
REMARK   65  A    between atoms: _163  and  _165
REMARK   66  A    between atoms: _165  and  _166
REMARK   67  A    between atoms: _165  and  _168
REMARK   68  A    between atoms: _168  and  _169
REMARK   69  A    between atoms: _174  and  _176
REMARK   70  A    between atoms: _176  and  _177
REMARK   71  A    between atoms: _176  and  _179
REMARK   72  A    between atoms: _179  and  _180
REMARK   73  A    between atoms: _183  and  _185
REMARK   74  A    between atoms: _185  and  _186
REMARK   75  A    between atoms: _185  and  _188
REMARK   76  A    between atoms: _188  and  _189
REMARK   77  A    between atoms: _192  and  _194
REMARK   78  A    between atoms: _194  and  _195
REMARK   79  A    between atoms: _194  and  _197
REMARK   80  A    between atoms: _197  and  _198
REMARK   81  A    between atoms: _203  and  _205
REMARK   82  A    between atoms: _205  and  _206
REMARK   83  A    between atoms: _205  and  _208
REMARK   84  A    between atoms: _208  and  _209
REMARK   85  A    between atoms: _212  and  _214
REMARK   86  A    between atoms: _214  and  _215
REMARK   87  A    between atoms: _214  and  _217
REMARK   88  A    between atoms: _217  and  _218
REMARK   89  A    between atoms: _223  and  _225
REMARK   90  A    between atoms: _225  and  _226
REMARK   91  A    between atoms: _228  and  _230
REMARK   92  A    between atoms: _230  and  _231
REMARK   93  A    between atoms: _230  and  _233
REMARK   94  A    between atoms: _233  and  _234
REMARK   95  A    between atoms: _238  and  ZN_939
REMARK   96  A    between atoms: _239  and  _241
REMARK   97  A    between atoms: _241  and  _242
REMARK   98  A    between atoms: _241  and  _244
REMARK   99  A    between atoms: _244  and  _245
REMARK  100  A    between atoms: _248  and  _250
REMARK  101  A    between atoms: _250  and  _251
REMARK  102  A    between atoms: _250  and  _253
REMARK  103  A    between atoms: _253  and  _254
REMARK  104  A    between atoms: _264  and  _266
REMARK  105  A    between atoms: _266  and  _267
REMARK  106  A    between atoms: _266  and  _269
REMARK  107  A    between atoms: _269  and  _270
REMARK  108  A    between atoms: _273  and  _275
REMARK  109  A    between atoms: _275  and  _276
REMARK  110  A    between atoms: _275  and  _278
REMARK  111  A    between atoms: _278  and  _279
REMARK  112  A    between atoms: _279  and  _280
REMARK  113  A    between atoms: _279  and  _281
REMARK  114  A    between atoms: _280  and  ZN_939
REMARK  115  A    between atoms: _281  and  ZN_938
REMARK  116  A    between atoms: _283  and  _284
REMARK  117  A    between atoms: _289  and  _291
REMARK  118  A    between atoms: _291  and  _292
REMARK  119  A    between atoms: _295  and  _297
REMARK  120  A    between atoms: _297  and  _298
REMARK  121  A    between atoms: _297  and  _300
REMARK  122  A    between atoms: _300  and  _301
REMARK  123  A    between atoms: _301  and  _302
REMARK  124  A    between atoms: _305  and  _307
REMARK  125  A    between atoms: _307  and  _308
REMARK  126  A    between atoms: _307  and  _310
REMARK  127  A    between atoms: _310  and  _311
REMARK  128  A    between atoms: _311  and  _312
REMARK  129  A    between atoms: _312  and  _314
REMARK  130  A    between atoms: _314  and  ZN_938
REMARK  131  A    between atoms: _315  and  _317
REMARK  132  A    between atoms: _317  and  _318
REMARK  133  A    between atoms: _317  and  _320
REMARK  134  A    between atoms: _320  and  _321
REMARK  135  A    between atoms: _327  and  _329
REMARK  136  A    between atoms: _329  and  _330
REMARK  137  A    between atoms: _332  and  _334
REMARK  138  A    between atoms: _334  and  _335
REMARK  139  A    between atoms: _334  and  _337
REMARK  140  A    between atoms: _337  and  _338
REMARK  141  A    between atoms: _341  and  _343
REMARK  142  A    between atoms: _343  and  _344
REMARK  143  A    between atoms: _343  and  _346
REMARK  144  A    between atoms: _346  and  _347
REMARK  145  A    between atoms: _350  and  _352
REMARK  146  A    between atoms: _352  and  _353
REMARK  147  A    between atoms: _352  and  _355
REMARK  148  A    between atoms: _355  and  _356
REMARK  149  A    between atoms: _361  and  _363
REMARK  150  A    between atoms: _363  and  _364
REMARK  151  A    between atoms: _363  and  _366
REMARK  152  A    between atoms: _366  and  _367
REMARK  153  A    between atoms: _367  and  _369
REMARK  154  A    between atoms: _369  and  ZN_939
REMARK  155  A    between atoms: _370  and  _372
REMARK  156  A    between atoms: _372  and  _373
REMARK  157  A    between atoms: _372  and  _375
REMARK  158  A    between atoms: _375  and  _376
REMARK  159  A    between atoms: _378  and  _380
REMARK  160  A    between atoms: _380  and  _381
REMARK  161  A    between atoms: _380  and  _383
REMARK  162  A    between atoms: _383  and  _384
REMARK  163  A    between atoms: _386  and  _388
REMARK  164  A    between atoms: _388  and  _389
REMARK  165  A    between atoms: _388  and  _391
REMARK  166  A    between atoms: _391  and  _392
REMARK  167  A    between atoms: _395  and  _397
REMARK  168  A    between atoms: _397  and  _398
REMARK  169  A    between atoms: _397  and  _400
REMARK  170  A    between atoms: _400  and  _401
REMARK  171  A    between atoms: _401  and  _402
REMARK  172  A    between atoms: _405  and  _407
REMARK  173  A    between atoms: _407  and  _408
REMARK  174  A    between atoms: _407  and  _410
REMARK  175  A    between atoms: _410  and  _411
REMARK  176  A    between atoms: _416  and  _417
REMARK  177  A    between atoms: _419  and  _421
REMARK  178  A    between atoms: _421  and  _422
REMARK  179  A    between atoms: _421  and  _424
REMARK  180  A    between atoms: _424  and  _425
REMARK  181  A    between atoms: _428  and  _430
REMARK  182  A    between atoms: _430  and  _431
REMARK  183  A    between atoms: _430  and  _433
REMARK  184  A    between atoms: _433  and  _434
REMARK  185  A    between atoms: _437  and  _439
REMARK  186  A    between atoms: _439  and  _440
REMARK  187  A    between atoms: _439  and  _442
REMARK  188  A    between atoms: _442  and  _443
REMARK  189  A    between atoms: _443  and  _444
REMARK  190  A    between atoms: _444  and  _445
REMARK  191  A    between atoms: _454  and  _456
REMARK  192  A    between atoms: _456  and  _457
REMARK  193  A    between atoms: _456  and  _459
REMARK  194  A    between atoms: _462  and  _464
REMARK  195  A    between atoms: _464  and  _465
REMARK  196  A    between atoms: _464  and  _467
REMARK  197  A    between atoms: _467  and  _468
REMARK  198  A    between atoms: _471  and  _473
REMARK  199  A    between atoms: _473  and  _474
REMARK  200  A    between atoms: _473  and  _476
REMARK  201  A    between atoms: _476  and  _477
REMARK  202  A    between atoms: _487  and  _489
REMARK  203  A    between atoms: _489  and  _490
REMARK  204  A    between atoms: _489  and  _492
REMARK  205  A    between atoms: _492  and  _493
REMARK  206  A    between atoms: _493  and  _494
REMARK  207  A    between atoms: _494  and  _495
REMARK  208  A    between atoms: _495  and  _496
REMARK  209  A    between atoms: _500  and  _502
REMARK  210  A    between atoms: _502  and  _503
REMARK  211  A    between atoms: _502  and  _505
REMARK  212  A    between atoms: _505  and  _506
REMARK  213  A    between atoms: _509  and  _510
REMARK  214  A    between atoms: _516  and  _517
REMARK  215  A    between atoms: _522  and  _524
REMARK  216  A    between atoms: _524  and  _525
REMARK  217  A    between atoms: _524  and  _527
REMARK  218  A    between atoms: _527  and  _528
REMARK  219  A    between atoms: _528  and  _529
REMARK  220  A    between atoms: _529  and  _530
REMARK  221  A    between atoms: _539  and  _541
REMARK  222  A    between atoms: _541  and  _542
REMARK  223  A    between atoms: _541  and  _544
REMARK  224  A    between atoms: _544  and  _545
REMARK  225  A    between atoms: _548  and  _550
REMARK  226  A    between atoms: _550  and  _551
REMARK  227  A    between atoms: _550  and  _553
REMARK  228  A    between atoms: _553  and  _554
REMARK  229  A    between atoms: _556  and  _558
REMARK  230  A    between atoms: _558  and  _559
REMARK  231  A    between atoms: _558  and  _561
REMARK  232  A    between atoms: _561  and  _562
REMARK  233  A    between atoms: _562  and  _563
REMARK  234  A    between atoms: _563  and  _564
REMARK  235  A    between atoms: _564  and  _565
REMARK  236  A    between atoms: _569  and  _571
REMARK  237  A    between atoms: _571  and  _572
REMARK  238  A    between atoms: _571  and  _574
REMARK  239  A    between atoms: _574  and  _575
REMARK  240  A    between atoms: _578  and  _580
REMARK  241  A    between atoms: _580  and  _581
REMARK  242  A    between atoms: _583  and  _585
REMARK  243  A    between atoms: _585  and  _586
REMARK  244  A    between atoms: _585  and  _588
REMARK  245  A    between atoms: _588  and  _589
REMARK  246  A    between atoms: _591  and  _593
REMARK  247  A    between atoms: _593  and  _594
REMARK  248  A    between atoms: _596  and  _598
REMARK  249  A    between atoms: _598  and  _599
REMARK  250  A    between atoms: _598  and  _601
REMARK  251  A    between atoms: _601  and  _602
REMARK  252  A    between atoms: _607  and  _609
REMARK  253  A    between atoms: _609  and  _610
REMARK  254  A    between atoms: _609  and  _612
REMARK  255  A    between atoms: _612  and  _613
REMARK  256  A    between atoms: _616  and  _618
REMARK  257  A    between atoms: _618  and  _619
REMARK  258  A    between atoms: _618  and  _621
REMARK  259  A    between atoms: _621  and  _622
REMARK  260  A    between atoms: _628  and  _630
REMARK  261  A    between atoms: _630  and  _631
REMARK  262  A    between atoms: _630  and  _633
REMARK  263  A    between atoms: _633  and  _634
REMARK  264  A    between atoms: _634  and  _635
REMARK  265  A    between atoms: _638  and  _640
REMARK  266  A    between atoms: _640  and  _641
REMARK  267  A    between atoms: _640  and  _643
REMARK  268  A    between atoms: _643  and  _644
REMARK  269  A    between atoms: _644  and  _645
REMARK  270  A    between atoms: _645  and  _646
REMARK  271  A    between atoms: _655  and  _657
REMARK  272  A    between atoms: _657  and  _658
REMARK  273  A    between atoms: _657  and  _660
REMARK  274  A    between atoms: _660  and  _661
REMARK  275  A    between atoms: _661  and  _662
REMARK  276  A    between atoms: _662  and  _663
REMARK  277  A    between atoms: _672  and  _674
REMARK  278  A    between atoms: _674  and  _675
REMARK  279  A    between atoms: _674  and  _677
REMARK  280  A    between atoms: _677  and  _678
REMARK  281  A    between atoms: _683  and  _684
REMARK  282  A    between atoms: _686  and  _688
REMARK  283  A    between atoms: _688  and  _689
REMARK  284  A    between atoms: _688  and  _691
REMARK  285  A    between atoms: _691  and  _692
REMARK  286  A    between atoms: _695  and  _697
REMARK  287  A    between atoms: _697  and  _698
REMARK  288  A    between atoms: _697  and  _700
REMARK  289  A    between atoms: _700  and  _701
REMARK  290  A    between atoms: _701  and  _702
REMARK  291  A    between atoms: _702  and  _703
REMARK  292  A    between atoms: _703  and  _704
REMARK  293  A    between atoms: _708  and  _710
REMARK  294  A    between atoms: _710  and  _711
REMARK  295  A    between atoms: _710  and  _713
REMARK  296  A    between atoms: _713  and  _714
REMARK  297  A    between atoms: _719  and  _721
REMARK  298  A    between atoms: _721  and  _722
REMARK  299  A    between atoms: _721  and  _724
REMARK  300  A    between atoms: _724  and  _725
REMARK  301  A    between atoms: _735  and  _737
REMARK  302  A    between atoms: _737  and  _738
REMARK  303  A    between atoms: _737  and  _740
REMARK  304  A    between atoms: _740  and  _741
REMARK  305  A    between atoms: _741  and  _742
REMARK  306  A    between atoms: _745  and  _747
REMARK  307  A    between atoms: _747  and  _748
REMARK  308  A    between atoms: _747  and  _750
REMARK  309  A    between atoms: _750  and  _751
REMARK  310  A    between atoms: _754  and  _756
REMARK  311  A    between atoms: _756  and  _757
REMARK  312  A    between atoms: _756  and  _759
REMARK  313  A    between atoms: _759  and  _760
REMARK  314  A    between atoms: _765  and  _767
REMARK  315  A    between atoms: _767  and  _768
REMARK  316  A    between atoms: _767  and  _770
REMARK  317  A    between atoms: _770  and  _771
REMARK  318  A    between atoms: _777  and  _779
REMARK  319  A    between atoms: _779  and  _780
REMARK  320  A    between atoms: _779  and  _782
REMARK  321  A    between atoms: _782  and  _783
REMARK  322  A    between atoms: _785  and  _787
REMARK  323  A    between atoms: _787  and  _788
REMARK  324  A    between atoms: _790  and  _792
REMARK  325  A    between atoms: _792  and  _793
REMARK  326  A    between atoms: _792  and  _795
REMARK  327  A    between atoms: _795  and  _796
REMARK  328  A    between atoms: _801  and  _802
REMARK  329  A    between atoms: _804  and  _806
REMARK  330  A    between atoms: _806  and  _807
REMARK  331  A    between atoms: _806  and  _809
REMARK  332  A    between atoms: _809  and  _810
REMARK  333  A    between atoms: _815  and  _816
REMARK  334  A    between atoms: _818  and  _820
REMARK  335  A    between atoms: _820  and  _821
REMARK  336  A    between atoms: _820  and  _823
REMARK  337  A    between atoms: _823  and  _824
REMARK  338  A    between atoms: _828  and  ZN_938
REMARK  339  A    between atoms: _829  and  _831
REMARK  340  A    between atoms: _831  and  _832
REMARK  341  A    between atoms: _831  and  _834
REMARK  342  A    between atoms: _834  and  _835
REMARK  343  A    between atoms: _835  and  _836
REMARK  344  A    between atoms: _839  and  _841
REMARK  345  A    between atoms: _841  and  _842
REMARK  346  A    between atoms: _841  and  _844
REMARK  347  A    between atoms: _844  and  _845
REMARK  348  A    between atoms: _845  and  _846
REMARK  349  A    between atoms: _846  and  _847
REMARK  350  A    between atoms: _856  and  _858
REMARK  351  A    between atoms: _858  and  _859
REMARK  352  A    between atoms: _858  and  _861
REMARK  353  A    between atoms: _861  and  _862
REMARK  354  A    between atoms: _867  and  _868
REMARK  355  A    between atoms: _870  and  _872
REMARK  356  A    between atoms: _872  and  _873
REMARK  357  A    between atoms: _872  and  _875
REMARK  358  A    between atoms: _875  and  _876
REMARK  359  A    between atoms: _878  and  _880
REMARK  360  A    between atoms: _880  and  _881
REMARK  361  A    between atoms: _880  and  _883
REMARK  362  A    between atoms: _883  and  _884
REMARK  363  A    between atoms: _889  and  _891
REMARK  364  A    between atoms: _891  and  _892
REMARK  365  A    between atoms: _891  and  _894
REMARK  366  A    between atoms: _894  and  _895
REMARK  367  A    between atoms: _900  and  _902
REMARK  368  A    between atoms: _902  and  _903
REMARK  369  A    between atoms: _902  and  _905
REMARK  370  A    between atoms: _905  and  _906
REMARK  371  A    between atoms: _906  and  _907
REMARK  372  A    between atoms: _907  and  _908
REMARK  373  A    between atoms: _908  and  _909
REMARK  374  A    between atoms: _913  and  _915
REMARK  375  A    between atoms: _915  and  _916
REMARK  376  A    between atoms: _915  and  _918
REMARK  377  A    between atoms: _918  and  _919
REMARK  378  A    between atoms: _924  and  _925
REMARK  379  A    between atoms: _927  and  _929
REMARK  380  A    between atoms: _929  and  _930
REMARK  381  A    between atoms: _933  and  _935
REMARK  382  A    between atoms: _935  and  _936
REMARK                            x       y       z     vdW  Elec       q    Type
REMARK                         _______ _______ _______ _____ _____    ______ ____
ROOT
ATOM      1  O   HOH     1      20.563  45.697  36.486  0.00  0.00    +0.000 OA
ENDROOT
TORSDOF 0
REMARK  Name = ../refined-set-2016/2xeg/2xeg_pocket.pdb
REMARK  382 active torsions:
REMARK  status: ('A' for Active; 'I' for Inactive)
REMARK    1  A    between atoms: _1  and  _3
REMARK    2  A    between atoms: _3  and  _4
REMARK    3  A    between atoms: _7  and  _9
REMARK    4  A    between atoms: _9  and  _10
REMARK    5  A    between atoms: _9  and  _12
REMARK    6  A    between atoms: _12  and  _13
REMARK    7  A    between atoms: _19  and  _21
REMARK    8  A    between atoms: _21  and  _22
REMARK    9  A    between atoms: _21  and  _24
REMARK   10  A    between atoms: _24  and  _25
REMARK   11  A    between atoms: _30  and  _31
REMARK   12  A    between atoms: _33  and  _35
REMARK   13  A    between atoms: _35  and  _36
REMARK   14  A    between atoms: _38  and  _40
REMARK   15  A    between atoms: _40  and  _41
REMARK   16  A    between atoms: _40  and  _43
REMARK   17  A    between atoms: _43  and  _44
REMARK   18  A    between atoms: _44  and  _45
REMARK   19  A    between atoms: _45  and  _46
REMARK   20  A    between atoms: _46  and  _47
REMARK   21  A    between atoms: _51  and  _53
REMARK   22  A    between atoms: _53  and  _54
REMARK   23  A    between atoms: _53  and  _56
REMARK   24  A    between atoms: _59  and  _61
REMARK   25  A    between atoms: _61  and  _62
REMARK   26  A    between atoms: _61  and  _64
REMARK   27  A    between atoms: _64  and  _65
REMARK   28  A    between atoms: _71  and  _73
REMARK   29  A    between atoms: _73  and  _74
REMARK   30  A    between atoms: _73  and  _76
REMARK   31  A    between atoms: _76  and  _77
REMARK   32  A    between atoms: _77  and  _78
REMARK   33  A    between atoms: _78  and  _79
REMARK   34  A    between atoms: _88  and  _90
REMARK   35  A    between atoms: _90  and  _91
REMARK   36  A    between atoms: _93  and  _95
REMARK   37  A    between atoms: _95  and  _96
REMARK   38  A    between atoms: _95  and  _98
REMARK   39  A    between atoms: _98  and  _99
REMARK   40  A    between atoms: _99  and  _100
REMARK   41  A    between atoms: _100  and  _101
REMARK   42  A    between atoms: _101  and  _102
REMARK   43  A    between atoms: _106  and  _108
REMARK   44  A    between atoms: _108  and  _109
REMARK   45  A    between atoms: _108  and  _111
REMARK   46  A    between atoms: _111  and  _112
REMARK   47  A    between atoms: _115  and  _117
REMARK   48  A    between atoms: _117  and  _118
REMARK   49  A    between atoms: _117  and  _120
REMARK   50  A    between atoms: _120  and  _121
REMARK   51  A    between atoms: _126  and  _127
REMARK   52  A    between atoms: _129  and  _131
REMARK   53  A    between atoms: _131  and  _132
REMARK   54  A    between atoms: _131  and  _134
REMARK   55  A    between atoms: _134  and  _135
REMARK   56  A    between atoms: _135  and  _136
REMARK   57  A    between atoms: _141  and  _143
REMARK   58  A    between atoms: _143  and  _144
REMARK   59  A    between atoms: _143  and  _146
REMARK   60  A    between atoms: _146  and  _147
REMARK   61  A    between atoms: _147  and  _148
REMARK   62  A    between atoms: _148  and  _149
REMARK   63  A    between atoms: _158  and  _160
REMARK   64  A    between atoms: _160  and  _161
REMARK   65  A    between atoms: _163  and  _165
REMARK   66  A    between atoms: _165  and  _166
REMARK   67  A    between atoms: _165  and  _168
REMARK   68  A    between atoms: _168  and  _169
REMARK   69  A    between atoms: _174  and  _176
REMARK   70  A    between atoms: _176  and  _177
REMARK   71  A    between atoms: _176  and  _179
REMARK   72  A    between atoms: _179  and  _180
REMARK   73  A    between atoms: _183  and  _185
REMARK   74  A    between atoms: _185  and  _186
REMARK   75  A    between atoms: _185  and  _188
REMARK   76  A    between atoms: _188  and  _189
REMARK   77  A    between atoms: _192  and  _194
REMARK   78  A    between atoms: _194  and  _195
REMARK   79  A    between atoms: _194  and  _197
REMARK   80  A    between atoms: _197  and  _198
REMARK   81  A    between atoms: _203  and  _205
REMARK   82  A    between atoms: _205  and  _206
REMARK   83  A    between atoms: _205  and  _208
REMARK   84  A    between atoms: _208  and  _209
REMARK   85  A    between atoms: _212  and  _214
REMARK   86  A    between atoms: _214  and  _215
REMARK   87  A    between atoms: _214  and  _217
REMARK   88  A    between atoms: _217  and  _218
REMARK   89  A    between atoms: _223  and  _225
REMARK   90  A    between atoms: _225  and  _226
REMARK   91  A    between atoms: _228  and  _230
REMARK   92  A    between atoms: _230  and  _231
REMARK   93  A    between atoms: _230  and  _233
REMARK   94  A    between atoms: _233  and  _234
REMARK   95  A    between atoms: _238  and  ZN_939
REMARK   96  A    between atoms: _239  and  _241
REMARK   97  A    between atoms: _241  and  _242
REMARK   98  A    between atoms: _241  and  _244
REMARK   99  A    between atoms: _244  and  _245
REMARK  100  A    between atoms: _248  and  _250
REMARK  101  A    between atoms: _250  and  _251
REMARK  102  A    between atoms: _250  and  _253
REMARK  103  A    between atoms: _253  and  _254
REMARK  104  A    between atoms: _264  and  _266
REMARK  105  A    between atoms: _266  and  _267
REMARK  106  A    between atoms: _266  and  _269
REMARK  107  A    between atoms: _269  and  _270
REMARK  108  A    between atoms: _273  and  _275
REMARK  109  A    between atoms: _275  and  _276
REMARK  110  A    between atoms: _275  and  _278
REMARK  111  A    between atoms: _278  and  _279
REMARK  112  A    between atoms: _279  and  _280
REMARK  113  A    between atoms: _279  and  _281
REMARK  114  A    between atoms: _280  and  ZN_939
REMARK  115  A    between atoms: _281  and  ZN_938
REMARK  116  A    between atoms: _283  and  _284
REMARK  117  A    between atoms: _289  and  _291
REMARK  118  A    between atoms: _291  and  _292
REMARK  119  A    between atoms: _295  and  _297
REMARK  120  A    between atoms: _297  and  _298
REMARK  121  A    between atoms: _297  and  _300
REMARK  122  A    between atoms: _300  and  _301
REMARK  123  A    between atoms: _301  and  _302
REMARK  124  A    between atoms: _305  and  _307
REMARK  125  A    between atoms: _307  and  _308
REMARK  126  A    between atoms: _307  and  _310
REMARK  127  A    between atoms: _310  and  _311
REMARK  128  A    between atoms: _311  and  _312
REMARK  129  A    between atoms: _312  and  _314
REMARK  130  A    between atoms: _314  and  ZN_938
REMARK  131  A    between atoms: _315  and  _317
REMARK  132  A    between atoms: _317  and  _318
REMARK  133  A    between atoms: _317  and  _320
REMARK  134  A    between atoms: _320  and  _321
REMARK  135  A    between atoms: _327  and  _329
REMARK  136  A    between atoms: _329  and  _330
REMARK  137  A    between atoms: _332  and  _334
REMARK  138  A    between atoms: _334  and  _335
REMARK  139  A    between atoms: _334  and  _337
REMARK  140  A    between atoms: _337  and  _338
REMARK  141  A    between atoms: _341  and  _343
REMARK  142  A    between atoms: _343  and  _344
REMARK  143  A    between atoms: _343  and  _346
REMARK  144  A    between atoms: _346  and  _347
REMARK  145  A    between atoms: _350  and  _352
REMARK  146  A    between atoms: _352  and  _353
REMARK  147  A    between atoms: _352  and  _355
REMARK  148  A    between atoms: _355  and  _356
REMARK  149  A    between atoms: _361  and  _363
REMARK  150  A    between atoms: _363  and  _364
REMARK  151  A    between atoms: _363  and  _366
REMARK  152  A    between atoms: _366  and  _367
REMARK  153  A    between atoms: _367  and  _369
REMARK  154  A    between atoms: _369  and  ZN_939
REMARK  155  A    between atoms: _370  and  _372
REMARK  156  A    between atoms: _372  and  _373
REMARK  157  A    between atoms: _372  and  _375
REMARK  158  A    between atoms: _375  and  _376
REMARK  159  A    between atoms: _378  and  _380
REMARK  160  A    between atoms: _380  and  _381
REMARK  161  A    between atoms: _380  and  _383
REMARK  162  A    between atoms: _383  and  _384
REMARK  163  A    between atoms: _386  and  _388
REMARK  164  A    between atoms: _388  and  _389
REMARK  165  A    between atoms: _388  and  _391
REMARK  166  A    between atoms: _391  and  _392
REMARK  167  A    between atoms: _395  and  _397
REMARK  168  A    between atoms: _397  and  _398
REMARK  169  A    between atoms: _397  and  _400
REMARK  170  A    between atoms: _400  and  _401
REMARK  171  A    between atoms: _401  and  _402
REMARK  172  A    between atoms: _405  and  _407
REMARK  173  A    between atoms: _407  and  _408
REMARK  174  A    between atoms: _407  and  _410
REMARK  175  A    between atoms: _410  and  _411
REMARK  176  A    between atoms: _416  and  _417
REMARK  177  A    between atoms: _419  and  _421
REMARK  178  A    between atoms: _421  and  _422
REMARK  179  A    between atoms: _421  and  _424
REMARK  180  A    between atoms: _424  and  _425
REMARK  181  A    between atoms: _428  and  _430
REMARK  182  A    between atoms: _430  and  _431
REMARK  183  A    between atoms: _430  and  _433
REMARK  184  A    between atoms: _433  and  _434
REMARK  185  A    between atoms: _437  and  _439
REMARK  186  A    between atoms: _439  and  _440
REMARK  187  A    between atoms: _439  and  _442
REMARK  188  A    between atoms: _442  and  _443
REMARK  189  A    between atoms: _443  and  _444
REMARK  190  A    between atoms: _444  and  _445
REMARK  191  A    between atoms: _454  and  _456
REMARK  192  A    between atoms: _456  and  _457
REMARK  193  A    between atoms: _456  and  _459
REMARK  194  A    between atoms: _462  and  _464
REMARK  195  A    between atoms: _464  and  _465
REMARK  196  A    between atoms: _464  and  _467
REMARK  197  A    between atoms: _467  and  _468
REMARK  198  A    between atoms: _471  and  _473
REMARK  199  A    between atoms: _473  and  _474
REMARK  200  A    between atoms: _473  and  _476
REMARK  201  A    between atoms: _476  and  _477
REMARK  202  A    between atoms: _487  and  _489
REMARK  203  A    between atoms: _489  and  _490
REMARK  204  A    between atoms: _489  and  _492
REMARK  205  A    between atoms: _492  and  _493
REMARK  206  A    between atoms: _493  and  _494
REMARK  207  A    between atoms: _494  and  _495
REMARK  208  A    between atoms: _495  and  _496
REMARK  209  A    between atoms: _500  and  _502
REMARK  210  A    between atoms: _502  and  _503
REMARK  211  A    between atoms: _502  and  _505
REMARK  212  A    between atoms: _505  and  _506
REMARK  213  A    between atoms: _509  and  _510
REMARK  214  A    between atoms: _516  and  _517
REMARK  215  A    between atoms: _522  and  _524
REMARK  216  A    between atoms: _524  and  _525
REMARK  217  A    between atoms: _524  and  _527
REMARK  218  A    between atoms: _527  and  _528
REMARK  219  A    between atoms: _528  and  _529
REMARK  220  A    between atoms: _529  and  _530
REMARK  221  A    between atoms: _539  and  _541
REMARK  222  A    between atoms: _541  and  _542
REMARK  223  A    between atoms: _541  and  _544
REMARK  224  A    between atoms: _544  and  _545
REMARK  225  A    between atoms: _548  and  _550
REMARK  226  A    between atoms: _550  and  _551
REMARK  227  A    between atoms: _550  and  _553
REMARK  228  A    between atoms: _553  and  _554
REMARK  229  A    between atoms: _556  and  _558
REMARK  230  A    between atoms: _558  and  _559
REMARK  231  A    between atoms: _558  and  _561
REMARK  232  A    between atoms: _561  and  _562
REMARK  233  A    between atoms: _562  and  _563
REMARK  234  A    between atoms: _563  and  _564
REMARK  235  A    between atoms: _564  and  _565
REMARK  236  A    between atoms: _569  and  _571
REMARK  237  A    between atoms: _571  and  _572
REMARK  238  A    between atoms: _571  and  _574
REMARK  239  A    between atoms: _574  and  _575
REMARK  240  A    between atoms: _578  and  _580
REMARK  241  A    between atoms: _580  and  _581
REMARK  242  A    between atoms: _583  and  _585
REMARK  243  A    between atoms: _585  and  _586
REMARK  244  A    between atoms: _585  and  _588
REMARK  245  A    between atoms: _588  and  _589
REMARK  246  A    between atoms: _591  and  _593
REMARK  247  A    between atoms: _593  and  _594
REMARK  248  A    between atoms: _596  and  _598
REMARK  249  A    between atoms: _598  and  _599
REMARK  250  A    between atoms: _598  and  _601
REMARK  251  A    between atoms: _601  and  _602
REMARK  252  A    between atoms: _607  and  _609
REMARK  253  A    between atoms: _609  and  _610
REMARK  254  A    between atoms: _609  and  _612
REMARK  255  A    between atoms: _612  and  _613
REMARK  256  A    between atoms: _616  and  _618
REMARK  257  A    between atoms: _618  and  _619
REMARK  258  A    between atoms: _618  and  _621
REMARK  259  A    between atoms: _621  and  _622
REMARK  260  A    between atoms: _628  and  _630
REMARK  261  A    between atoms: _630  and  _631
REMARK  262  A    between atoms: _630  and  _633
REMARK  263  A    between atoms: _633  and  _634
REMARK  264  A    between atoms: _634  and  _635
REMARK  265  A    between atoms: _638  and  _640
REMARK  266  A    between atoms: _640  and  _641
REMARK  267  A    between atoms: _640  and  _643
REMARK  268  A    between atoms: _643  and  _644
REMARK  269  A    between atoms: _644  and  _645
REMARK  270  A    between atoms: _645  and  _646
REMARK  271  A    between atoms: _655  and  _657
REMARK  272  A    between atoms: _657  and  _658
REMARK  273  A    between atoms: _657  and  _660
REMARK  274  A    between atoms: _660  and  _661
REMARK  275  A    between atoms: _661  and  _662
REMARK  276  A    between atoms: _662  and  _663
REMARK  277  A    between atoms: _672  and  _674
REMARK  278  A    between atoms: _674  and  _675
REMARK  279  A    between atoms: _674  and  _677
REMARK  280  A    between atoms: _677  and  _678
REMARK  281  A    between atoms: _683  and  _684
REMARK  282  A    between atoms: _686  and  _688
REMARK  283  A    between atoms: _688  and  _689
REMARK  284  A    between atoms: _688  and  _691
REMARK  285  A    between atoms: _691  and  _692
REMARK  286  A    between atoms: _695  and  _697
REMARK  287  A    between atoms: _697  and  _698
REMARK  288  A    between atoms: _697  and  _700
REMARK  289  A    between atoms: _700  and  _701
REMARK  290  A    between atoms: _701  and  _702
REMARK  291  A    between atoms: _702  and  _703
REMARK  292  A    between atoms: _703  and  _704
REMARK  293  A    between atoms: _708  and  _710
REMARK  294  A    between atoms: _710  and  _711
REMARK  295  A    between atoms: _710  and  _713
REMARK  296  A    between atoms: _713  and  _714
REMARK  297  A    between atoms: _719  and  _721
REMARK  298  A    between atoms: _721  and  _722
REMARK  299  A    between atoms: _721  and  _724
REMARK  300  A    between atoms: _724  and  _725
REMARK  301  A    between atoms: _735  and  _737
REMARK  302  A    between atoms: _737  and  _738
REMARK  303  A    between atoms: _737  and  _740
REMARK  304  A    between atoms: _740  and  _741
REMARK  305  A    between atoms: _741  and  _742
REMARK  306  A    between atoms: _745  and  _747
REMARK  307  A    between atoms: _747  and  _748
REMARK  308  A    between atoms: _747  and  _750
REMARK  309  A    between atoms: _750  and  _751
REMARK  310  A    between atoms: _754  and  _756
REMARK  311  A    between atoms: _756  and  _757
REMARK  312  A    between atoms: _756  and  _759
REMARK  313  A    between atoms: _759  and  _760
REMARK  314  A    between atoms: _765  and  _767
REMARK  315  A    between atoms: _767  and  _768
REMARK  316  A    between atoms: _767  and  _770
REMARK  317  A    between atoms: _770  and  _771
REMARK  318  A    between atoms: _777  and  _779
REMARK  319  A    between atoms: _779  and  _780
REMARK  320  A    between atoms: _779  and  _782
REMARK  321  A    between atoms: _782  and  _783
REMARK  322  A    between atoms: _785  and  _787
REMARK  323  A    between atoms: _787  and  _788
REMARK  324  A    between atoms: _790  and  _792
REMARK  325  A    between atoms: _792  and  _793
REMARK  326  A    between atoms: _792  and  _795
REMARK  327  A    between atoms: _795  and  _796
REMARK  328  A    between atoms: _801  and  _802
REMARK  329  A    between atoms: _804  and  _806
REMARK  330  A    between atoms: _806  and  _807
REMARK  331  A    between atoms: _806  and  _809
REMARK  332  A    between atoms: _809  and  _810
REMARK  333  A    between atoms: _815  and  _816
REMARK  334  A    between atoms: _818  and  _820
REMARK  335  A    between atoms: _820  and  _821
REMARK  336  A    between atoms: _820  and  _823
REMARK  337  A    between atoms: _823  and  _824
REMARK  338  A    between atoms: _828  and  ZN_938
REMARK  339  A    between atoms: _829  and  _831
REMARK  340  A    between atoms: _831  and  _832
REMARK  341  A    between atoms: _831  and  _834
REMARK  342  A    between atoms: _834  and  _835
REMARK  343  A    between atoms: _835  and  _836
REMARK  344  A    between atoms: _839  and  _841
REMARK  345  A    between atoms: _841  and  _842
REMARK  346  A    between atoms: _841  and  _844
REMARK  347  A    between atoms: _844  and  _845
REMARK  348  A    between atoms: _845  and  _846
REMARK  349  A    between atoms: _846  and  _847
REMARK  350  A    between atoms: _856  and  _858
REMARK  351  A    between atoms: _858  and  _859
REMARK  352  A    between atoms: _858  and  _861
REMARK  353  A    between atoms: _861  and  _862
REMARK  354  A    between atoms: _867  and  _868
REMARK  355  A    between atoms: _870  and  _872
REMARK  356  A    between atoms: _872  and  _873
REMARK  357  A    between atoms: _872  and  _875
REMARK  358  A    between atoms: _875  and  _876
REMARK  359  A    between atoms: _878  and  _880
REMARK  360  A    between atoms: _880  and  _881
REMARK  361  A    between atoms: _880  and  _883
REMARK  362  A    between atoms: _883  and  _884
REMARK  363  A    between atoms: _889  and  _891
REMARK  364  A    between atoms: _891  and  _892
REMARK  365  A    between atoms: _891  and  _894
REMARK  366  A    between atoms: _894  and  _895
REMARK  367  A    between atoms: _900  and  _902
REMARK  368  A    between atoms: _902  and  _903
REMARK  369  A    between atoms: _902  and  _905
REMARK  370  A    between atoms: _905  and  _906
REMARK  371  A    between atoms: _906  and  _907
REMARK  372  A    between atoms: _907  and  _908
REMARK  373  A    between atoms: _908  and  _909
REMARK  374  A    between atoms: _913  and  _915
REMARK  375  A    between atoms: _915  and  _916
REMARK  376  A    between atoms: _915  and  _918
REMARK  377  A    between atoms: _918  and  _919
REMARK  378  A    between atoms: _924  and  _925
REMARK  379  A    between atoms: _927  and  _929
REMARK  380  A    between atoms: _929  and  _930
REMARK  381  A    between atoms: _933  and  _935
REMARK  382  A    between atoms: _935  and  _936
REMARK                            x       y       z     vdW  Elec       q    Type
REMARK                         _______ _______ _______ _____ _____    ______ ____
ROOT
ATOM      1  O   HOH     1      22.092  52.444  45.146  0.00  0.00    +0.000 OA
ENDROOT
TORSDOF 0
REMARK  Name = ../refined-set-2016/2xeg/2xeg_pocket.pdb
REMARK  382 active torsions:
REMARK  status: ('A' for Active; 'I' for Inactive)
REMARK    1  A    between atoms: _1  and  _3
REMARK    2  A    between atoms: _3  and  _4
REMARK    3  A    between atoms: _7  and  _9
REMARK    4  A    between atoms: _9  and  _10
REMARK    5  A    between atoms: _9  and  _12
REMARK    6  A    between atoms: _12  and  _13
REMARK    7  A    between atoms: _19  and  _21
REMARK    8  A    between atoms: _21  and  _22
REMARK    9  A    between atoms: _21  and  _24
REMARK   10  A    between atoms: _24  and  _25
REMARK   11  A    between atoms: _30  and  _31
REMARK   12  A    between atoms: _33  and  _35
REMARK   13  A    between atoms: _35  and  _36
REMARK   14  A    between atoms: _38  and  _40
REMARK   15  A    between atoms: _40  and  _41
REMARK   16  A    between atoms: _40  and  _43
REMARK   17  A    between atoms: _43  and  _44
REMARK   18  A    between atoms: _44  and  _45
REMARK   19  A    between atoms: _45  and  _46
REMARK   20  A    between atoms: _46  and  _47
REMARK   21  A    between atoms: _51  and  _53
REMARK   22  A    between atoms: _53  and  _54
REMARK   23  A    between atoms: _53  and  _56
REMARK   24  A    between atoms: _59  and  _61
REMARK   25  A    between atoms: _61  and  _62
REMARK   26  A    between atoms: _61  and  _64
REMARK   27  A    between atoms: _64  and  _65
REMARK   28  A    between atoms: _71  and  _73
REMARK   29  A    between atoms: _73  and  _74
REMARK   30  A    between atoms: _73  and  _76
REMARK   31  A    between atoms: _76  and  _77
REMARK   32  A    between atoms: _77  and  _78
REMARK   33  A    between atoms: _78  and  _79
REMARK   34  A    between atoms: _88  and  _90
REMARK   35  A    between atoms: _90  and  _91
REMARK   36  A    between atoms: _93  and  _95
REMARK   37  A    between atoms: _95  and  _96
REMARK   38  A    between atoms: _95  and  _98
REMARK   39  A    between atoms: _98  and  _99
REMARK   40  A    between atoms: _99  and  _100
REMARK   41  A    between atoms: _100  and  _101
REMARK   42  A    between atoms: _101  and  _102
REMARK   43  A    between atoms: _106  and  _108
REMARK   44  A    between atoms: _108  and  _109
REMARK   45  A    between atoms: _108  and  _111
REMARK   46  A    between atoms: _111  and  _112
REMARK   47  A    between atoms: _115  and  _117
REMARK   48  A    between atoms: _117  and  _118
REMARK   49  A    between atoms: _117  and  _120
REMARK   50  A    between atoms: _120  and  _121
REMARK   51  A    between atoms: _126  and  _127
REMARK   52  A    between atoms: _129  and  _131
REMARK   53  A    between atoms: _131  and  _132
REMARK   54  A    between atoms: _131  and  _134
REMARK   55  A    between atoms: _134  and  _135
REMARK   56  A    between atoms: _135  and  _136
REMARK   57  A    between atoms: _141  and  _143
REMARK   58  A    between atoms: _143  and  _144
REMARK   59  A    between atoms: _143  and  _146
REMARK   60  A    between atoms: _146  and  _147
REMARK   61  A    between atoms: _147  and  _148
REMARK   62  A    between atoms: _148  and  _149
REMARK   63  A    between atoms: _158  and  _160
REMARK   64  A    between atoms: _160  and  _161
REMARK   65  A    between atoms: _163  and  _165
REMARK   66  A    between atoms: _165  and  _166
REMARK   67  A    between atoms: _165  and  _168
REMARK   68  A    between atoms: _168  and  _169
REMARK   69  A    between atoms: _174  and  _176
REMARK   70  A    between atoms: _176  and  _177
REMARK   71  A    between atoms: _176  and  _179
REMARK   72  A    between atoms: _179  and  _180
REMARK   73  A    between atoms: _183  and  _185
REMARK   74  A    between atoms: _185  and  _186
REMARK   75  A    between atoms: _185  and  _188
REMARK   76  A    between atoms: _188  and  _189
REMARK   77  A    between atoms: _192  and  _194
REMARK   78  A    between atoms: _194  and  _195
REMARK   79  A    between atoms: _194  and  _197
REMARK   80  A    between atoms: _197  and  _198
REMARK   81  A    between atoms: _203  and  _205
REMARK   82  A    between atoms: _205  and  _206
REMARK   83  A    between atoms: _205  and  _208
REMARK   84  A    between atoms: _208  and  _209
REMARK   85  A    between atoms: _212  and  _214
REMARK   86  A    between atoms: _214  and  _215
REMARK   87  A    between atoms: _214  and  _217
REMARK   88  A    between atoms: _217  and  _218
REMARK   89  A    between atoms: _223  and  _225
REMARK   90  A    between atoms: _225  and  _226
REMARK   91  A    between atoms: _228  and  _230
REMARK   92  A    between atoms: _230  and  _231
REMARK   93  A    between atoms: _230  and  _233
REMARK   94  A    between atoms: _233  and  _234
REMARK   95  A    between atoms: _238  and  ZN_939
REMARK   96  A    between atoms: _239  and  _241
REMARK   97  A    between atoms: _241  and  _242
REMARK   98  A    between atoms: _241  and  _244
REMARK   99  A    between atoms: _244  and  _245
REMARK  100  A    between atoms: _248  and  _250
REMARK  101  A    between atoms: _250  and  _251
REMARK  102  A    between atoms: _250  and  _253
REMARK  103  A    between atoms: _253  and  _254
REMARK  104  A    between atoms: _264  and  _266
REMARK  105  A    between atoms: _266  and  _267
REMARK  106  A    between atoms: _266  and  _269
REMARK  107  A    between atoms: _269  and  _270
REMARK  108  A    between atoms: _273  and  _275
REMARK  109  A    between atoms: _275  and  _276
REMARK  110  A    between atoms: _275  and  _278
REMARK  111  A    between atoms: _278  and  _279
REMARK  112  A    between atoms: _279  and  _280
REMARK  113  A    between atoms: _279  and  _281
REMARK  114  A    between atoms: _280  and  ZN_939
REMARK  115  A    between atoms: _281  and  ZN_938
REMARK  116  A    between atoms: _283  and  _284
REMARK  117  A    between atoms: _289  and  _291
REMARK  118  A    between atoms: _291  and  _292
REMARK  119  A    between atoms: _295  and  _297
REMARK  120  A    between atoms: _297  and  _298
REMARK  121  A    between atoms: _297  and  _300
REMARK  122  A    between atoms: _300  and  _301
REMARK  123  A    between atoms: _301  and  _302
REMARK  124  A    between atoms: _305  and  _307
REMARK  125  A    between atoms: _307  and  _308
REMARK  126  A    between atoms: _307  and  _310
REMARK  127  A    between atoms: _310  and  _311
REMARK  128  A    between atoms: _311  and  _312
REMARK  129  A    between atoms: _312  and  _314
REMARK  130  A    between atoms: _314  and  ZN_938
REMARK  131  A    between atoms: _315  and  _317
REMARK  132  A    between atoms: _317  and  _318
REMARK  133  A    between atoms: _317  and  _320
REMARK  134  A    between atoms: _320  and  _321
REMARK  135  A    between atoms: _327  and  _329
REMARK  136  A    between atoms: _329  and  _330
REMARK  137  A    between atoms: _332  and  _334
REMARK  138  A    between atoms: _334  and  _335
REMARK  139  A    between atoms: _334  and  _337
REMARK  140  A    between atoms: _337  and  _338
REMARK  141  A    between atoms: _341  and  _343
REMARK  142  A    between atoms: _343  and  _344
REMARK  143  A    between atoms: _343  and  _346
REMARK  144  A    between atoms: _346  and  _347
REMARK  145  A    between atoms: _350  and  _352
REMARK  146  A    between atoms: _352  and  _353
REMARK  147  A    between atoms: _352  and  _355
REMARK  148  A    between atoms: _355  and  _356
REMARK  149  A    between atoms: _361  and  _363
REMARK  150  A    between atoms: _363  and  _364
REMARK  151  A    between atoms: _363  and  _366
REMARK  152  A    between atoms: _366  and  _367
REMARK  153  A    between atoms: _367  and  _369
REMARK  154  A    between atoms: _369  and  ZN_939
REMARK  155  A    between atoms: _370  and  _372
REMARK  156  A    between atoms: _372  and  _373
REMARK  157  A    between atoms: _372  and  _375
REMARK  158  A    between atoms: _375  and  _376
REMARK  159  A    between atoms: _378  and  _380
REMARK  160  A    between atoms: _380  and  _381
REMARK  161  A    between atoms: _380  and  _383
REMARK  162  A    between atoms: _383  and  _384
REMARK  163  A    between atoms: _386  and  _388
REMARK  164  A    between atoms: _388  and  _389
REMARK  165  A    between atoms: _388  and  _391
REMARK  166  A    between atoms: _391  and  _392
REMARK  167  A    between atoms: _395  and  _397
REMARK  168  A    between atoms: _397  and  _398
REMARK  169  A    between atoms: _397  and  _400
REMARK  170  A    between atoms: _400  and  _401
REMARK  171  A    between atoms: _401  and  _402
REMARK  172  A    between atoms: _405  and  _407
REMARK  173  A    between atoms: _407  and  _408
REMARK  174  A    between atoms: _407  and  _410
REMARK  175  A    between atoms: _410  and  _411
REMARK  176  A    between atoms: _416  and  _417
REMARK  177  A    between atoms: _419  and  _421
REMARK  178  A    between atoms: _421  and  _422
REMARK  179  A    between atoms: _421  and  _424
REMARK  180  A    between atoms: _424  and  _425
REMARK  181  A    between atoms: _428  and  _430
REMARK  182  A    between atoms: _430  and  _431
REMARK  183  A    between atoms: _430  and  _433
REMARK  184  A    between atoms: _433  and  _434
REMARK  185  A    between atoms: _437  and  _439
REMARK  186  A    between atoms: _439  and  _440
REMARK  187  A    between atoms: _439  and  _442
REMARK  188  A    between atoms: _442  and  _443
REMARK  189  A    between atoms: _443  and  _444
REMARK  190  A    between atoms: _444  and  _445
REMARK  191  A    between atoms: _454  and  _456
REMARK  192  A    between atoms: _456  and  _457
REMARK  193  A    between atoms: _456  and  _459
REMARK  194  A    between atoms: _462  and  _464
REMARK  195  A    between atoms: _464  and  _465
REMARK  196  A    between atoms: _464  and  _467
REMARK  197  A    between atoms: _467  and  _468
REMARK  198  A    between atoms: _471  and  _473
REMARK  199  A    between atoms: _473  and  _474
REMARK  200  A    between atoms: _473  and  _476
REMARK  201  A    between atoms: _476  and  _477
REMARK  202  A    between atoms: _487  and  _489
REMARK  203  A    between atoms: _489  and  _490
REMARK  204  A    between atoms: _489  and  _492
REMARK  205  A    between atoms: _492  and  _493
REMARK  206  A    between atoms: _493  and  _494
REMARK  207  A    between atoms: _494  and  _495
REMARK  208  A    between atoms: _495  and  _496
REMARK  209  A    between atoms: _500  and  _502
REMARK  210  A    between atoms: _502  and  _503
REMARK  211  A    between atoms: _502  and  _505
REMARK  212  A    between atoms: _505  and  _506
REMARK  213  A    between atoms: _509  and  _510
REMARK  214  A    between atoms: _516  and  _517
REMARK  215  A    between atoms: _522  and  _524
REMARK  216  A    between atoms: _524  and  _525
REMARK  217  A    between atoms: _524  and  _527
REMARK  218  A    between atoms: _527  and  _528
REMARK  219  A    between atoms: _528  and  _529
REMARK  220  A    between atoms: _529  and  _530
REMARK  221  A    between atoms: _539  and  _541
REMARK  222  A    between atoms: _541  and  _542
REMARK  223  A    between atoms: _541  and  _544
REMARK  224  A    between atoms: _544  and  _545
REMARK  225  A    between atoms: _548  and  _550
REMARK  226  A    between atoms: _550  and  _551
REMARK  227  A    between atoms: _550  and  _553
REMARK  228  A    between atoms: _553  and  _554
REMARK  229  A    between atoms: _556  and  _558
REMARK  230  A    between atoms: _558  and  _559
REMARK  231  A    between atoms: _558  and  _561
REMARK  232  A    between atoms: _561  and  _562
REMARK  233  A    between atoms: _562  and  _563
REMARK  234  A    between atoms: _563  and  _564
REMARK  235  A    between atoms: _564  and  _565
REMARK  236  A    between atoms: _569  and  _571
REMARK  237  A    between atoms: _571  and  _572
REMARK  238  A    between atoms: _571  and  _574
REMARK  239  A    between atoms: _574  and  _575
REMARK  240  A    between atoms: _578  and  _580
REMARK  241  A    between atoms: _580  and  _581
REMARK  242  A    between atoms: _583  and  _585
REMARK  243  A    between atoms: _585  and  _586
REMARK  244  A    between atoms: _585  and  _588
REMARK  245  A    between atoms: _588  and  _589
REMARK  246  A    between atoms: _591  and  _593
REMARK  247  A    between atoms: _593  and  _594
REMARK  248  A    between atoms: _596  and  _598
REMARK  249  A    between atoms: _598  and  _599
REMARK  250  A    between atoms: _598  and  _601
REMARK  251  A    between atoms: _601  and  _602
REMARK  252  A    between atoms: _607  and  _609
REMARK  253  A    between atoms: _609  and  _610
REMARK  254  A    between atoms: _609  and  _612
REMARK  255  A    between atoms: _612  and  _613
REMARK  256  A    between atoms: _616  and  _618
REMARK  257  A    between atoms: _618  and  _619
REMARK  258  A    between atoms: _618  and  _621
REMARK  259  A    between atoms: _621  and  _622
REMARK  260  A    between atoms: _628  and  _630
REMARK  261  A    between atoms: _630  and  _631
REMARK  262  A    between atoms: _630  and  _633
REMARK  263  A    between atoms: _633  and  _634
REMARK  264  A    between atoms: _634  and  _635
REMARK  265  A    between atoms: _638  and  _640
REMARK  266  A    between atoms: _640  and  _641
REMARK  267  A    between atoms: _640  and  _643
REMARK  268  A    between atoms: _643  and  _644
REMARK  269  A    between atoms: _644  and  _645
REMARK  270  A    between atoms: _645  and  _646
REMARK  271  A    between atoms: _655  and  _657
REMARK  272  A    between atoms: _657  and  _658
REMARK  273  A    between atoms: _657  and  _660
REMARK  274  A    between atoms: _660  and  _661
REMARK  275  A    between atoms: _661  and  _662
REMARK  276  A    between atoms: _662  and  _663
REMARK  277  A    between atoms: _672  and  _674
REMARK  278  A    between atoms: _674  and  _675
REMARK  279  A    between atoms: _674  and  _677
REMARK  280  A    between atoms: _677  and  _678
REMARK  281  A    between atoms: _683  and  _684
REMARK  282  A    between atoms: _686  and  _688
REMARK  283  A    between atoms: _688  and  _689
REMARK  284  A    between atoms: _688  and  _691
REMARK  285  A    between atoms: _691  and  _692
REMARK  286  A    between atoms: _695  and  _697
REMARK  287  A    between atoms: _697  and  _698
REMARK  288  A    between atoms: _697  and  _700
REMARK  289  A    between atoms: _700  and  _701
REMARK  290  A    between atoms: _701  and  _702
REMARK  291  A    between atoms: _702  and  _703
REMARK  292  A    between atoms: _703  and  _704
REMARK  293  A    between atoms: _708  and  _710
REMARK  294  A    between atoms: _710  and  _711
REMARK  295  A    between atoms: _710  and  _713
REMARK  296  A    between atoms: _713  and  _714
REMARK  297  A    between atoms: _719  and  _721
REMARK  298  A    between atoms: _721  and  _722
REMARK  299  A    between atoms: _721  and  _724
REMARK  300  A    between atoms: _724  and  _725
REMARK  301  A    between atoms: _735  and  _737
REMARK  302  A    between atoms: _737  and  _738
REMARK  303  A    between atoms: _737  and  _740
REMARK  304  A    between atoms: _740  and  _741
REMARK  305  A    between atoms: _741  and  _742
REMARK  306  A    between atoms: _745  and  _747
REMARK  307  A    between atoms: _747  and  _748
REMARK  308  A    between atoms: _747  and  _750
REMARK  309  A    between atoms: _750  and  _751
REMARK  310  A    between atoms: _754  and  _756
REMARK  311  A    between atoms: _756  and  _757
REMARK  312  A    between atoms: _756  and  _759
REMARK  313  A    between atoms: _759  and  _760
REMARK  314  A    between atoms: _765  and  _767
REMARK  315  A    between atoms: _767  and  _768
REMARK  316  A    between atoms: _767  and  _770
REMARK  317  A    between atoms: _770  and  _771
REMARK  318  A    between atoms: _777  and  _779
REMARK  319  A    between atoms: _779  and  _780
REMARK  320  A    between atoms: _779  and  _782
REMARK  321  A    between atoms: _782  and  _783
REMARK  322  A    between atoms: _785  and  _787
REMARK  323  A    between atoms: _787  and  _788
REMARK  324  A    between atoms: _790  and  _792
REMARK  325  A    between atoms: _792  and  _793
REMARK  326  A    between atoms: _792  and  _795
REMARK  327  A    between atoms: _795  and  _796
REMARK  328  A    between atoms: _801  and  _802
REMARK  329  A    between atoms: _804  and  _806
REMARK  330  A    between atoms: _806  and  _807
REMARK  331  A    between atoms: _806  and  _809
REMARK  332  A    between atoms: _809  and  _810
REMARK  333  A    between atoms: _815  and  _816
REMARK  334  A    between atoms: _818  and  _820
REMARK  335  A    between atoms: _820  and  _821
REMARK  336  A    between atoms: _820  and  _823
REMARK  337  A    between atoms: _823  and  _824
REMARK  338  A    between atoms: _828  and  ZN_938
REMARK  339  A    between atoms: _829  and  _831
REMARK  340  A    between atoms: _831  and  _832
REMARK  341  A    between atoms: _831  and  _834
REMARK  342  A    between atoms: _834  and  _835
REMARK  343  A    between atoms: _835  and  _836
REMARK  344  A    between atoms: _839  and  _841
REMARK  345  A    between atoms: _841  and  _842
REMARK  346  A    between atoms: _841  and  _844
REMARK  347  A    between atoms: _844  and  _845
REMARK  348  A    between atoms: _845  and  _846
REMARK  349  A    between atoms: _846  and  _847
REMARK  350  A    between atoms: _856  and  _858
REMARK  351  A    between atoms: _858  and  _859
REMARK  352  A    between atoms: _858  and  _861
REMARK  353  A    between atoms: _861  and  _862
REMARK  354  A    between atoms: _867  and  _868
REMARK  355  A    between atoms: _870  and  _872
REMARK  356  A    between atoms: _872  and  _873
REMARK  357  A    between atoms: _872  and  _875
REMARK  358  A    between atoms: _875  and  _876
REMARK  359  A    between atoms: _878  and  _880
REMARK  360  A    between atoms: _880  and  _881
REMARK  361  A    between atoms: _880  and  _883
REMARK  362  A    between atoms: _883  and  _884
REMARK  363  A    between atoms: _889  and  _891
REMARK  364  A    between atoms: _891  and  _892
REMARK  365  A    between atoms: _891  and  _894
REMARK  366  A    between atoms: _894  and  _895
REMARK  367  A    between atoms: _900  and  _902
REMARK  368  A    between atoms: _902  and  _903
REMARK  369  A    between atoms: _902  and  _905
REMARK  370  A    between atoms: _905  and  _906
REMARK  371  A    between atoms: _906  and  _907
REMARK  372  A    between atoms: _907  and  _908
REMARK  373  A    between atoms: _908  and  _909
REMARK  374  A    between atoms: _913  and  _915
REMARK  375  A    between atoms: _915  and  _916
REMARK  376  A    between atoms: _915  and  _918
REMARK  377  A    between atoms: _918  and  _919
REMARK  378  A    between atoms: _924  and  _925
REMARK  379  A    between atoms: _927  and  _929
REMARK  380  A    between atoms: _929  and  _930
REMARK  381  A    between atoms: _933  and  _935
REMARK  382  A    between atoms: _935  and  _936
REMARK                            x       y       z     vdW  Elec       q    Type
REMARK                         _______ _______ _______ _____ _____    ______ ____
ROOT
ATOM      1  O   HOH     1      15.105  41.766  38.716  0.00  0.00    +0.000 OA
ENDROOT
TORSDOF 0
REMARK  Name = ../refined-set-2016/2xeg/2xeg_pocket.pdb
REMARK  382 active torsions:
REMARK  status: ('A' for Active; 'I' for Inactive)
REMARK    1  A    between atoms: _1  and  _3
REMARK    2  A    between atoms: _3  and  _4
REMARK    3  A    between atoms: _7  and  _9
REMARK    4  A    between atoms: _9  and  _10
REMARK    5  A    between atoms: _9  and  _12
REMARK    6  A    between atoms: _12  and  _13
REMARK    7  A    between atoms: _19  and  _21
REMARK    8  A    between atoms: _21  and  _22
REMARK    9  A    between atoms: _21  and  _24
REMARK   10  A    between atoms: _24  and  _25
REMARK   11  A    between atoms: _30  and  _31
REMARK   12  A    between atoms: _33  and  _35
REMARK   13  A    between atoms: _35  and  _36
REMARK   14  A    between atoms: _38  and  _40
REMARK   15  A    between atoms: _40  and  _41
REMARK   16  A    between atoms: _40  and  _43
REMARK   17  A    between atoms: _43  and  _44
REMARK   18  A    between atoms: _44  and  _45
REMARK   19  A    between atoms: _45  and  _46
REMARK   20  A    between atoms: _46  and  _47
REMARK   21  A    between atoms: _51  and  _53
REMARK   22  A    between atoms: _53  and  _54
REMARK   23  A    between atoms: _53  and  _56
REMARK   24  A    between atoms: _59  and  _61
REMARK   25  A    between atoms: _61  and  _62
REMARK   26  A    between atoms: _61  and  _64
REMARK   27  A    between atoms: _64  and  _65
REMARK   28  A    between atoms: _71  and  _73
REMARK   29  A    between atoms: _73  and  _74
REMARK   30  A    between atoms: _73  and  _76
REMARK   31  A    between atoms: _76  and  _77
REMARK   32  A    between atoms: _77  and  _78
REMARK   33  A    between atoms: _78  and  _79
REMARK   34  A    between atoms: _88  and  _90
REMARK   35  A    between atoms: _90  and  _91
REMARK   36  A    between atoms: _93  and  _95
REMARK   37  A    between atoms: _95  and  _96
REMARK   38  A    between atoms: _95  and  _98
REMARK   39  A    between atoms: _98  and  _99
REMARK   40  A    between atoms: _99  and  _100
REMARK   41  A    between atoms: _100  and  _101
REMARK   42  A    between atoms: _101  and  _102
REMARK   43  A    between atoms: _106  and  _108
REMARK   44  A    between atoms: _108  and  _109
REMARK   45  A    between atoms: _108  and  _111
REMARK   46  A    between atoms: _111  and  _112
REMARK   47  A    between atoms: _115  and  _117
REMARK   48  A    between atoms: _117  and  _118
REMARK   49  A    between atoms: _117  and  _120
REMARK   50  A    between atoms: _120  and  _121
REMARK   51  A    between atoms: _126  and  _127
REMARK   52  A    between atoms: _129  and  _131
REMARK   53  A    between atoms: _131  and  _132
REMARK   54  A    between atoms: _131  and  _134
REMARK   55  A    between atoms: _134  and  _135
REMARK   56  A    between atoms: _135  and  _136
REMARK   57  A    between atoms: _141  and  _143
REMARK   58  A    between atoms: _143  and  _144
REMARK   59  A    between atoms: _143  and  _146
REMARK   60  A    between atoms: _146  and  _147
REMARK   61  A    between atoms: _147  and  _148
REMARK   62  A    between atoms: _148  and  _149
REMARK   63  A    between atoms: _158  and  _160
REMARK   64  A    between atoms: _160  and  _161
REMARK   65  A    between atoms: _163  and  _165
REMARK   66  A    between atoms: _165  and  _166
REMARK   67  A    between atoms: _165  and  _168
REMARK   68  A    between atoms: _168  and  _169
REMARK   69  A    between atoms: _174  and  _176
REMARK   70  A    between atoms: _176  and  _177
REMARK   71  A    between atoms: _176  and  _179
REMARK   72  A    between atoms: _179  and  _180
REMARK   73  A    between atoms: _183  and  _185
REMARK   74  A    between atoms: _185  and  _186
REMARK   75  A    between atoms: _185  and  _188
REMARK   76  A    between atoms: _188  and  _189
REMARK   77  A    between atoms: _192  and  _194
REMARK   78  A    between atoms: _194  and  _195
REMARK   79  A    between atoms: _194  and  _197
REMARK   80  A    between atoms: _197  and  _198
REMARK   81  A    between atoms: _203  and  _205
REMARK   82  A    between atoms: _205  and  _206
REMARK   83  A    between atoms: _205  and  _208
REMARK   84  A    between atoms: _208  and  _209
REMARK   85  A    between atoms: _212  and  _214
REMARK   86  A    between atoms: _214  and  _215
REMARK   87  A    between atoms: _214  and  _217
REMARK   88  A    between atoms: _217  and  _218
REMARK   89  A    between atoms: _223  and  _225
REMARK   90  A    between atoms: _225  and  _226
REMARK   91  A    between atoms: _228  and  _230
REMARK   92  A    between atoms: _230  and  _231
REMARK   93  A    between atoms: _230  and  _233
REMARK   94  A    between atoms: _233  and  _234
REMARK   95  A    between atoms: _238  and  ZN_939
REMARK   96  A    between atoms: _239  and  _241
REMARK   97  A    between atoms: _241  and  _242
REMARK   98  A    between atoms: _241  and  _244
REMARK   99  A    between atoms: _244  and  _245
REMARK  100  A    between atoms: _248  and  _250
REMARK  101  A    between atoms: _250  and  _251
REMARK  102  A    between atoms: _250  and  _253
REMARK  103  A    between atoms: _253  and  _254
REMARK  104  A    between atoms: _264  and  _266
REMARK  105  A    between atoms: _266  and  _267
REMARK  106  A    between atoms: _266  and  _269
REMARK  107  A    between atoms: _269  and  _270
REMARK  108  A    between atoms: _273  and  _275
REMARK  109  A    between atoms: _275  and  _276
REMARK  110  A    between atoms: _275  and  _278
REMARK  111  A    between atoms: _278  and  _279
REMARK  112  A    between atoms: _279  and  _280
REMARK  113  A    between atoms: _279  and  _281
REMARK  114  A    between atoms: _280  and  ZN_939
REMARK  115  A    between atoms: _281  and  ZN_938
REMARK  116  A    between atoms: _283  and  _284
REMARK  117  A    between atoms: _289  and  _291
REMARK  118  A    between atoms: _291  and  _292
REMARK  119  A    between atoms: _295  and  _297
REMARK  120  A    between atoms: _297  and  _298
REMARK  121  A    between atoms: _297  and  _300
REMARK  122  A    between atoms: _300  and  _301
REMARK  123  A    between atoms: _301  and  _302
REMARK  124  A    between atoms: _305  and  _307
REMARK  125  A    between atoms: _307  and  _308
REMARK  126  A    between atoms: _307  and  _310
REMARK  127  A    between atoms: _310  and  _311
REMARK  128  A    between atoms: _311  and  _312
REMARK  129  A    between atoms: _312  and  _314
REMARK  130  A    between atoms: _314  and  ZN_938
REMARK  131  A    between atoms: _315  and  _317
REMARK  132  A    between atoms: _317  and  _318
REMARK  133  A    between atoms: _317  and  _320
REMARK  134  A    between atoms: _320  and  _321
REMARK  135  A    between atoms: _327  and  _329
REMARK  136  A    between atoms: _329  and  _330
REMARK  137  A    between atoms: _332  and  _334
REMARK  138  A    between atoms: _334  and  _335
REMARK  139  A    between atoms: _334  and  _337
REMARK  140  A    between atoms: _337  and  _338
REMARK  141  A    between atoms: _341  and  _343
REMARK  142  A    between atoms: _343  and  _344
REMARK  143  A    between atoms: _343  and  _346
REMARK  144  A    between atoms: _346  and  _347
REMARK  145  A    between atoms: _350  and  _352
REMARK  146  A    between atoms: _352  and  _353
REMARK  147  A    between atoms: _352  and  _355
REMARK  148  A    between atoms: _355  and  _356
REMARK  149  A    between atoms: _361  and  _363
REMARK  150  A    between atoms: _363  and  _364
REMARK  151  A    between atoms: _363  and  _366
REMARK  152  A    between atoms: _366  and  _367
REMARK  153  A    between atoms: _367  and  _369
REMARK  154  A    between atoms: _369  and  ZN_939
REMARK  155  A    between atoms: _370  and  _372
REMARK  156  A    between atoms: _372  and  _373
REMARK  157  A    between atoms: _372  and  _375
REMARK  158  A    between atoms: _375  and  _376
REMARK  159  A    between atoms: _378  and  _380
REMARK  160  A    between atoms: _380  and  _381
REMARK  161  A    between atoms: _380  and  _383
REMARK  162  A    between atoms: _383  and  _384
REMARK  163  A    between atoms: _386  and  _388
REMARK  164  A    between atoms: _388  and  _389
REMARK  165  A    between atoms: _388  and  _391
REMARK  166  A    between atoms: _391  and  _392
REMARK  167  A    between atoms: _395  and  _397
REMARK  168  A    between atoms: _397  and  _398
REMARK  169  A    between atoms: _397  and  _400
REMARK  170  A    between atoms: _400  and  _401
REMARK  171  A    between atoms: _401  and  _402
REMARK  172  A    between atoms: _405  and  _407
REMARK  173  A    between atoms: _407  and  _408
REMARK  174  A    between atoms: _407  and  _410
REMARK  175  A    between atoms: _410  and  _411
REMARK  176  A    between atoms: _416  and  _417
REMARK  177  A    between atoms: _419  and  _421
REMARK  178  A    between atoms: _421  and  _422
REMARK  179  A    between atoms: _421  and  _424
REMARK  180  A    between atoms: _424  and  _425
REMARK  181  A    between atoms: _428  and  _430
REMARK  182  A    between atoms: _430  and  _431
REMARK  183  A    between atoms: _430  and  _433
REMARK  184  A    between atoms: _433  and  _434
REMARK  185  A    between atoms: _437  and  _439
REMARK  186  A    between atoms: _439  and  _440
REMARK  187  A    between atoms: _439  and  _442
REMARK  188  A    between atoms: _442  and  _443
REMARK  189  A    between atoms: _443  and  _444
REMARK  190  A    between atoms: _444  and  _445
REMARK  191  A    between atoms: _454  and  _456
REMARK  192  A    between atoms: _456  and  _457
REMARK  193  A    between atoms: _456  and  _459
REMARK  194  A    between atoms: _462  and  _464
REMARK  195  A    between atoms: _464  and  _465
REMARK  196  A    between atoms: _464  and  _467
REMARK  197  A    between atoms: _467  and  _468
REMARK  198  A    between atoms: _471  and  _473
REMARK  199  A    between atoms: _473  and  _474
REMARK  200  A    between atoms: _473  and  _476
REMARK  201  A    between atoms: _476  and  _477
REMARK  202  A    between atoms: _487  and  _489
REMARK  203  A    between atoms: _489  and  _490
REMARK  204  A    between atoms: _489  and  _492
REMARK  205  A    between atoms: _492  and  _493
REMARK  206  A    between atoms: _493  and  _494
REMARK  207  A    between atoms: _494  and  _495
REMARK  208  A    between atoms: _495  and  _496
REMARK  209  A    between atoms: _500  and  _502
REMARK  210  A    between atoms: _502  and  _503
REMARK  211  A    between atoms: _502  and  _505
REMARK  212  A    between atoms: _505  and  _506
REMARK  213  A    between atoms: _509  and  _510
REMARK  214  A    between atoms: _516  and  _517
REMARK  215  A    between atoms: _522  and  _524
REMARK  216  A    between atoms: _524  and  _525
REMARK  217  A    between atoms: _524  and  _527
REMARK  218  A    between atoms: _527  and  _528
REMARK  219  A    between atoms: _528  and  _529
REMARK  220  A    between atoms: _529  and  _530
REMARK  221  A    between atoms: _539  and  _541
REMARK  222  A    between atoms: _541  and  _542
REMARK  223  A    between atoms: _541  and  _544
REMARK  224  A    between atoms: _544  and  _545
REMARK  225  A    between atoms: _548  and  _550
REMARK  226  A    between atoms: _550  and  _551
REMARK  227  A    between atoms: _550  and  _553
REMARK  228  A    between atoms: _553  and  _554
REMARK  229  A    between atoms: _556  and  _558
REMARK  230  A    between atoms: _558  and  _559
REMARK  231  A    between atoms: _558  and  _561
REMARK  232  A    between atoms: _561  and  _562
REMARK  233  A    between atoms: _562  and  _563
REMARK  234  A    between atoms: _563  and  _564
REMARK  235  A    between atoms: _564  and  _565
REMARK  236  A    between atoms: _569  and  _571
REMARK  237  A    between atoms: _571  and  _572
REMARK  238  A    between atoms: _571  and  _574
REMARK  239  A    between atoms: _574  and  _575
REMARK  240  A    between atoms: _578  and  _580
REMARK  241  A    between atoms: _580  and  _581
REMARK  242  A    between atoms: _583  and  _585
REMARK  243  A    between atoms: _585  and  _586
REMARK  244  A    between atoms: _585  and  _588
REMARK  245  A    between atoms: _588  and  _589
REMARK  246  A    between atoms: _591  and  _593
REMARK  247  A    between atoms: _593  and  _594
REMARK  248  A    between atoms: _596  and  _598
REMARK  249  A    between atoms: _598  and  _599
REMARK  250  A    between atoms: _598  and  _601
REMARK  251  A    between atoms: _601  and  _602
REMARK  252  A    between atoms: _607  and  _609
REMARK  253  A    between atoms: _609  and  _610
REMARK  254  A    between atoms: _609  and  _612
REMARK  255  A    between atoms: _612  and  _613
REMARK  256  A    between atoms: _616  and  _618
REMARK  257  A    between atoms: _618  and  _619
REMARK  258  A    between atoms: _618  and  _621
REMARK  259  A    between atoms: _621  and  _622
REMARK  260  A    between atoms: _628  and  _630
REMARK  261  A    between atoms: _630  and  _631
REMARK  262  A    between atoms: _630  and  _633
REMARK  263  A    between atoms: _633  and  _634
REMARK  264  A    between atoms: _634  and  _635
REMARK  265  A    between atoms: _638  and  _640
REMARK  266  A    between atoms: _640  and  _641
REMARK  267  A    between atoms: _640  and  _643
REMARK  268  A    between atoms: _643  and  _644
REMARK  269  A    between atoms: _644  and  _645
REMARK  270  A    between atoms: _645  and  _646
REMARK  271  A    between atoms: _655  and  _657
REMARK  272  A    between atoms: _657  and  _658
REMARK  273  A    between atoms: _657  and  _660
REMARK  274  A    between atoms: _660  and  _661
REMARK  275  A    between atoms: _661  and  _662
REMARK  276  A    between atoms: _662  and  _663
REMARK  277  A    between atoms: _672  and  _674
REMARK  278  A    between atoms: _674  and  _675
REMARK  279  A    between atoms: _674  and  _677
REMARK  280  A    between atoms: _677  and  _678
REMARK  281  A    between atoms: _683  and  _684
REMARK  282  A    between atoms: _686  and  _688
REMARK  283  A    between atoms: _688  and  _689
REMARK  284  A    between atoms: _688  and  _691
REMARK  285  A    between atoms: _691  and  _692
REMARK  286  A    between atoms: _695  and  _697
REMARK  287  A    between atoms: _697  and  _698
REMARK  288  A    between atoms: _697  and  _700
REMARK  289  A    between atoms: _700  and  _701
REMARK  290  A    between atoms: _701  and  _702
REMARK  291  A    between atoms: _702  and  _703
REMARK  292  A    between atoms: _703  and  _704
REMARK  293  A    between atoms: _708  and  _710
REMARK  294  A    between atoms: _710  and  _711
REMARK  295  A    between atoms: _710  and  _713
REMARK  296  A    between atoms: _713  and  _714
REMARK  297  A    between atoms: _719  and  _721
REMARK  298  A    between atoms: _721  and  _722
REMARK  299  A    between atoms: _721  and  _724
REMARK  300  A    between atoms: _724  and  _725
REMARK  301  A    between atoms: _735  and  _737
REMARK  302  A    between atoms: _737  and  _738
REMARK  303  A    between atoms: _737  and  _740
REMARK  304  A    between atoms: _740  and  _741
REMARK  305  A    between atoms: _741  and  _742
REMARK  306  A    between atoms: _745  and  _747
REMARK  307  A    between atoms: _747  and  _748
REMARK  308  A    between atoms: _747  and  _750
REMARK  309  A    between atoms: _750  and  _751
REMARK  310  A    between atoms: _754  and  _756
REMARK  311  A    between atoms: _756  and  _757
REMARK  312  A    between atoms: _756  and  _759
REMARK  313  A    between atoms: _759  and  _760
REMARK  314  A    between atoms: _765  and  _767
REMARK  315  A    between atoms: _767  and  _768
REMARK  316  A    between atoms: _767  and  _770
REMARK  317  A    between atoms: _770  and  _771
REMARK  318  A    between atoms: _777  and  _779
REMARK  319  A    between atoms: _779  and  _780
REMARK  320  A    between atoms: _779  and  _782
REMARK  321  A    between atoms: _782  and  _783
REMARK  322  A    between atoms: _785  and  _787
REMARK  323  A    between atoms: _787  and  _788
REMARK  324  A    between atoms: _790  and  _792
REMARK  325  A    between atoms: _792  and  _793
REMARK  326  A    between atoms: _792  and  _795
REMARK  327  A    between atoms: _795  and  _796
REMARK  328  A    between atoms: _801  and  _802
REMARK  329  A    between atoms: _804  and  _806
REMARK  330  A    between atoms: _806  and  _807
REMARK  331  A    between atoms: _806  and  _809
REMARK  332  A    between atoms: _809  and  _810
REMARK  333  A    between atoms: _815  and  _816
REMARK  334  A    between atoms: _818  and  _820
REMARK  335  A    between atoms: _820  and  _821
REMARK  336  A    between atoms: _820  and  _823
REMARK  337  A    between atoms: _823  and  _824
REMARK  338  A    between atoms: _828  and  ZN_938
REMARK  339  A    between atoms: _829  and  _831
REMARK  340  A    between atoms: _831  and  _832
REMARK  341  A    between atoms: _831  and  _834
REMARK  342  A    between atoms: _834  and  _835
REMARK  343  A    between atoms: _835  and  _836
REMARK  344  A    between atoms: _839  and  _841
REMARK  345  A    between atoms: _841  and  _842
REMARK  346  A    between atoms: _841  and  _844
REMARK  347  A    between atoms: _844  and  _845
REMARK  348  A    between atoms: _845  and  _846
REMARK  349  A    between atoms: _846  and  _847
REMARK  350  A    between atoms: _856  and  _858
REMARK  351  A    between atoms: _858  and  _859
REMARK  352  A    between atoms: _858  and  _861
REMARK  353  A    between atoms: _861  and  _862
REMARK  354  A    between atoms: _867  and  _868
REMARK  355  A    between atoms: _870  and  _872
REMARK  356  A    between atoms: _872  and  _873
REMARK  357  A    between atoms: _872  and  _875
REMARK  358  A    between atoms: _875  and  _876
REMARK  359  A    between atoms: _878  and  _880
REMARK  360  A    between atoms: _880  and  _881
REMARK  361  A    between atoms: _880  and  _883
REMARK  362  A    between atoms: _883  and  _884
REMARK  363  A    between atoms: _889  and  _891
REMARK  364  A    between atoms: _891  and  _892
REMARK  365  A    between atoms: _891  and  _894
REMARK  366  A    between atoms: _894  and  _895
REMARK  367  A    between atoms: _900  and  _902
REMARK  368  A    between atoms: _902  and  _903
REMARK  369  A    between atoms: _902  and  _905
REMARK  370  A    between atoms: _905  and  _906
REMARK  371  A    between atoms: _906  and  _907
REMARK  372  A    between atoms: _907  and  _908
REMARK  373  A    between atoms: _908  and  _909
REMARK  374  A    between atoms: _913  and  _915
REMARK  375  A    between atoms: _915  and  _916
REMARK  376  A    between atoms: _915  and  _918
REMARK  377  A    between atoms: _918  and  _919
REMARK  378  A    between atoms: _924  and  _925
REMARK  379  A    between atoms: _927  and  _929
REMARK  380  A    between atoms: _929  and  _930
REMARK  381  A    between atoms: _933  and  _935
REMARK  382  A    between atoms: _935  and  _936
REMARK                            x       y       z     vdW  Elec       q    Type
REMARK                         _______ _______ _______ _____ _____    ______ ____
ROOT
ATOM      1  O   HOH     1      11.683  47.599  37.445  0.00  0.00    +0.000 OA
ENDROOT
TORSDOF 0
REMARK  Name = ../refined-set-2016/2xeg/2xeg_pocket.pdb
REMARK  382 active torsions:
REMARK  status: ('A' for Active; 'I' for Inactive)
REMARK    1  A    between atoms: _1  and  _3
REMARK    2  A    between atoms: _3  and  _4
REMARK    3  A    between atoms: _7  and  _9
REMARK    4  A    between atoms: _9  and  _10
REMARK    5  A    between atoms: _9  and  _12
REMARK    6  A    between atoms: _12  and  _13
REMARK    7  A    between atoms: _19  and  _21
REMARK    8  A    between atoms: _21  and  _22
REMARK    9  A    between atoms: _21  and  _24
REMARK   10  A    between atoms: _24  and  _25
REMARK   11  A    between atoms: _30  and  _31
REMARK   12  A    between atoms: _33  and  _35
REMARK   13  A    between atoms: _35  and  _36
REMARK   14  A    between atoms: _38  and  _40
REMARK   15  A    between atoms: _40  and  _41
REMARK   16  A    between atoms: _40  and  _43
REMARK   17  A    between atoms: _43  and  _44
REMARK   18  A    between atoms: _44  and  _45
REMARK   19  A    between atoms: _45  and  _46
REMARK   20  A    between atoms: _46  and  _47
REMARK   21  A    between atoms: _51  and  _53
REMARK   22  A    between atoms: _53  and  _54
REMARK   23  A    between atoms: _53  and  _56
REMARK   24  A    between atoms: _59  and  _61
REMARK   25  A    between atoms: _61  and  _62
REMARK   26  A    between atoms: _61  and  _64
REMARK   27  A    between atoms: _64  and  _65
REMARK   28  A    between atoms: _71  and  _73
REMARK   29  A    between atoms: _73  and  _74
REMARK   30  A    between atoms: _73  and  _76
REMARK   31  A    between atoms: _76  and  _77
REMARK   32  A    between atoms: _77  and  _78
REMARK   33  A    between atoms: _78  and  _79
REMARK   34  A    between atoms: _88  and  _90
REMARK   35  A    between atoms: _90  and  _91
REMARK   36  A    between atoms: _93  and  _95
REMARK   37  A    between atoms: _95  and  _96
REMARK   38  A    between atoms: _95  and  _98
REMARK   39  A    between atoms: _98  and  _99
REMARK   40  A    between atoms: _99  and  _100
REMARK   41  A    between atoms: _100  and  _101
REMARK   42  A    between atoms: _101  and  _102
REMARK   43  A    between atoms: _106  and  _108
REMARK   44  A    between atoms: _108  and  _109
REMARK   45  A    between atoms: _108  and  _111
REMARK   46  A    between atoms: _111  and  _112
REMARK   47  A    between atoms: _115  and  _117
REMARK   48  A    between atoms: _117  and  _118
REMARK   49  A    between atoms: _117  and  _120
REMARK   50  A    between atoms: _120  and  _121
REMARK   51  A    between atoms: _126  and  _127
REMARK   52  A    between atoms: _129  and  _131
REMARK   53  A    between atoms: _131  and  _132
REMARK   54  A    between atoms: _131  and  _134
REMARK   55  A    between atoms: _134  and  _135
REMARK   56  A    between atoms: _135  and  _136
REMARK   57  A    between atoms: _141  and  _143
REMARK   58  A    between atoms: _143  and  _144
REMARK   59  A    between atoms: _143  and  _146
REMARK   60  A    between atoms: _146  and  _147
REMARK   61  A    between atoms: _147  and  _148
REMARK   62  A    between atoms: _148  and  _149
REMARK   63  A    between atoms: _158  and  _160
REMARK   64  A    between atoms: _160  and  _161
REMARK   65  A    between atoms: _163  and  _165
REMARK   66  A    between atoms: _165  and  _166
REMARK   67  A    between atoms: _165  and  _168
REMARK   68  A    between atoms: _168  and  _169
REMARK   69  A    between atoms: _174  and  _176
REMARK   70  A    between atoms: _176  and  _177
REMARK   71  A    between atoms: _176  and  _179
REMARK   72  A    between atoms: _179  and  _180
REMARK   73  A    between atoms: _183  and  _185
REMARK   74  A    between atoms: _185  and  _186
REMARK   75  A    between atoms: _185  and  _188
REMARK   76  A    between atoms: _188  and  _189
REMARK   77  A    between atoms: _192  and  _194
REMARK   78  A    between atoms: _194  and  _195
REMARK   79  A    between atoms: _194  and  _197
REMARK   80  A    between atoms: _197  and  _198
REMARK   81  A    between atoms: _203  and  _205
REMARK   82  A    between atoms: _205  and  _206
REMARK   83  A    between atoms: _205  and  _208
REMARK   84  A    between atoms: _208  and  _209
REMARK   85  A    between atoms: _212  and  _214
REMARK   86  A    between atoms: _214  and  _215
REMARK   87  A    between atoms: _214  and  _217
REMARK   88  A    between atoms: _217  and  _218
REMARK   89  A    between atoms: _223  and  _225
REMARK   90  A    between atoms: _225  and  _226
REMARK   91  A    between atoms: _228  and  _230
REMARK   92  A    between atoms: _230  and  _231
REMARK   93  A    between atoms: _230  and  _233
REMARK   94  A    between atoms: _233  and  _234
REMARK   95  A    between atoms: _238  and  ZN_939
REMARK   96  A    between atoms: _239  and  _241
REMARK   97  A    between atoms: _241  and  _242
REMARK   98  A    between atoms: _241  and  _244
REMARK   99  A    between atoms: _244  and  _245
REMARK  100  A    between atoms: _248  and  _250
REMARK  101  A    between atoms: _250  and  _251
REMARK  102  A    between atoms: _250  and  _253
REMARK  103  A    between atoms: _253  and  _254
REMARK  104  A    between atoms: _264  and  _266
REMARK  105  A    between atoms: _266  and  _267
REMARK  106  A    between atoms: _266  and  _269
REMARK  107  A    between atoms: _269  and  _270
REMARK  108  A    between atoms: _273  and  _275
REMARK  109  A    between atoms: _275  and  _276
REMARK  110  A    between atoms: _275  and  _278
REMARK  111  A    between atoms: _278  and  _279
REMARK  112  A    between atoms: _279  and  _280
REMARK  113  A    between atoms: _279  and  _281
REMARK  114  A    between atoms: _280  and  ZN_939
REMARK  115  A    between atoms: _281  and  ZN_938
REMARK  116  A    between atoms: _283  and  _284
REMARK  117  A    between atoms: _289  and  _291
REMARK  118  A    between atoms: _291  and  _292
REMARK  119  A    between atoms: _295  and  _297
REMARK  120  A    between atoms: _297  and  _298
REMARK  121  A    between atoms: _297  and  _300
REMARK  122  A    between atoms: _300  and  _301
REMARK  123  A    between atoms: _301  and  _302
REMARK  124  A    between atoms: _305  and  _307
REMARK  125  A    between atoms: _307  and  _308
REMARK  126  A    between atoms: _307  and  _310
REMARK  127  A    between atoms: _310  and  _311
REMARK  128  A    between atoms: _311  and  _312
REMARK  129  A    between atoms: _312  and  _314
REMARK  130  A    between atoms: _314  and  ZN_938
REMARK  131  A    between atoms: _315  and  _317
REMARK  132  A    between atoms: _317  and  _318
REMARK  133  A    between atoms: _317  and  _320
REMARK  134  A    between atoms: _320  and  _321
REMARK  135  A    between atoms: _327  and  _329
REMARK  136  A    between atoms: _329  and  _330
REMARK  137  A    between atoms: _332  and  _334
REMARK  138  A    between atoms: _334  and  _335
REMARK  139  A    between atoms: _334  and  _337
REMARK  140  A    between atoms: _337  and  _338
REMARK  141  A    between atoms: _341  and  _343
REMARK  142  A    between atoms: _343  and  _344
REMARK  143  A    between atoms: _343  and  _346
REMARK  144  A    between atoms: _346  and  _347
REMARK  145  A    between atoms: _350  and  _352
REMARK  146  A    between atoms: _352  and  _353
REMARK  147  A    between atoms: _352  and  _355
REMARK  148  A    between atoms: _355  and  _356
REMARK  149  A    between atoms: _361  and  _363
REMARK  150  A    between atoms: _363  and  _364
REMARK  151  A    between atoms: _363  and  _366
REMARK  152  A    between atoms: _366  and  _367
REMARK  153  A    between atoms: _367  and  _369
REMARK  154  A    between atoms: _369  and  ZN_939
REMARK  155  A    between atoms: _370  and  _372
REMARK  156  A    between atoms: _372  and  _373
REMARK  157  A    between atoms: _372  and  _375
REMARK  158  A    between atoms: _375  and  _376
REMARK  159  A    between atoms: _378  and  _380
REMARK  160  A    between atoms: _380  and  _381
REMARK  161  A    between atoms: _380  and  _383
REMARK  162  A    between atoms: _383  and  _384
REMARK  163  A    between atoms: _386  and  _388
REMARK  164  A    between atoms: _388  and  _389
REMARK  165  A    between atoms: _388  and  _391
REMARK  166  A    between atoms: _391  and  _392
REMARK  167  A    between atoms: _395  and  _397
REMARK  168  A    between atoms: _397  and  _398
REMARK  169  A    between atoms: _397  and  _400
REMARK  170  A    between atoms: _400  and  _401
REMARK  171  A    between atoms: _401  and  _402
REMARK  172  A    between atoms: _405  and  _407
REMARK  173  A    between atoms: _407  and  _408
REMARK  174  A    between atoms: _407  and  _410
REMARK  175  A    between atoms: _410  and  _411
REMARK  176  A    between atoms: _416  and  _417
REMARK  177  A    between atoms: _419  and  _421
REMARK  178  A    between atoms: _421  and  _422
REMARK  179  A    between atoms: _421  and  _424
REMARK  180  A    between atoms: _424  and  _425
REMARK  181  A    between atoms: _428  and  _430
REMARK  182  A    between atoms: _430  and  _431
REMARK  183  A    between atoms: _430  and  _433
REMARK  184  A    between atoms: _433  and  _434
REMARK  185  A    between atoms: _437  and  _439
REMARK  186  A    between atoms: _439  and  _440
REMARK  187  A    between atoms: _439  and  _442
REMARK  188  A    between atoms: _442  and  _443
REMARK  189  A    between atoms: _443  and  _444
REMARK  190  A    between atoms: _444  and  _445
REMARK  191  A    between atoms: _454  and  _456
REMARK  192  A    between atoms: _456  and  _457
REMARK  193  A    between atoms: _456  and  _459
REMARK  194  A    between atoms: _462  and  _464
REMARK  195  A    between atoms: _464  and  _465
REMARK  196  A    between atoms: _464  and  _467
REMARK  197  A    between atoms: _467  and  _468
REMARK  198  A    between atoms: _471  and  _473
REMARK  199  A    between atoms: _473  and  _474
REMARK  200  A    between atoms: _473  and  _476
REMARK  201  A    between atoms: _476  and  _477
REMARK  202  A    between atoms: _487  and  _489
REMARK  203  A    between atoms: _489  and  _490
REMARK  204  A    between atoms: _489  and  _492
REMARK  205  A    between atoms: _492  and  _493
REMARK  206  A    between atoms: _493  and  _494
REMARK  207  A    between atoms: _494  and  _495
REMARK  208  A    between atoms: _495  and  _496
REMARK  209  A    between atoms: _500  and  _502
REMARK  210  A    between atoms: _502  and  _503
REMARK  211  A    between atoms: _502  and  _505
REMARK  212  A    between atoms: _505  and  _506
REMARK  213  A    between atoms: _509  and  _510
REMARK  214  A    between atoms: _516  and  _517
REMARK  215  A    between atoms: _522  and  _524
REMARK  216  A    between atoms: _524  and  _525
REMARK  217  A    between atoms: _524  and  _527
REMARK  218  A    between atoms: _527  and  _528
REMARK  219  A    between atoms: _528  and  _529
REMARK  220  A    between atoms: _529  and  _530
REMARK  221  A    between atoms: _539  and  _541
REMARK  222  A    between atoms: _541  and  _542
REMARK  223  A    between atoms: _541  and  _544
REMARK  224  A    between atoms: _544  and  _545
REMARK  225  A    between atoms: _548  and  _550
REMARK  226  A    between atoms: _550  and  _551
REMARK  227  A    between atoms: _550  and  _553
REMARK  228  A    between atoms: _553  and  _554
REMARK  229  A    between atoms: _556  and  _558
REMARK  230  A    between atoms: _558  and  _559
REMARK  231  A    between atoms: _558  and  _561
REMARK  232  A    between atoms: _561  and  _562
REMARK  233  A    between atoms: _562  and  _563
REMARK  234  A    between atoms: _563  and  _564
REMARK  235  A    between atoms: _564  and  _565
REMARK  236  A    between atoms: _569  and  _571
REMARK  237  A    between atoms: _571  and  _572
REMARK  238  A    between atoms: _571  and  _574
REMARK  239  A    between atoms: _574  and  _575
REMARK  240  A    between atoms: _578  and  _580
REMARK  241  A    between atoms: _580  and  _581
REMARK  242  A    between atoms: _583  and  _585
REMARK  243  A    between atoms: _585  and  _586
REMARK  244  A    between atoms: _585  and  _588
REMARK  245  A    between atoms: _588  and  _589
REMARK  246  A    between atoms: _591  and  _593
REMARK  247  A    between atoms: _593  and  _594
REMARK  248  A    between atoms: _596  and  _598
REMARK  249  A    between atoms: _598  and  _599
REMARK  250  A    between atoms: _598  and  _601
REMARK  251  A    between atoms: _601  and  _602
REMARK  252  A    between atoms: _607  and  _609
REMARK  253  A    between atoms: _609  and  _610
REMARK  254  A    between atoms: _609  and  _612
REMARK  255  A    between atoms: _612  and  _613
REMARK  256  A    between atoms: _616  and  _618
REMARK  257  A    between atoms: _618  and  _619
REMARK  258  A    between atoms: _618  and  _621
REMARK  259  A    between atoms: _621  and  _622
REMARK  260  A    between atoms: _628  and  _630
REMARK  261  A    between atoms: _630  and  _631
REMARK  262  A    between atoms: _630  and  _633
REMARK  263  A    between atoms: _633  and  _634
REMARK  264  A    between atoms: _634  and  _635
REMARK  265  A    between atoms: _638  and  _640
REMARK  266  A    between atoms: _640  and  _641
REMARK  267  A    between atoms: _640  and  _643
REMARK  268  A    between atoms: _643  and  _644
REMARK  269  A    between atoms: _644  and  _645
REMARK  270  A    between atoms: _645  and  _646
REMARK  271  A    between atoms: _655  and  _657
REMARK  272  A    between atoms: _657  and  _658
REMARK  273  A    between atoms: _657  and  _660
REMARK  274  A    between atoms: _660  and  _661
REMARK  275  A    between atoms: _661  and  _662
REMARK  276  A    between atoms: _662  and  _663
REMARK  277  A    between atoms: _672  and  _674
REMARK  278  A    between atoms: _674  and  _675
REMARK  279  A    between atoms: _674  and  _677
REMARK  280  A    between atoms: _677  and  _678
REMARK  281  A    between atoms: _683  and  _684
REMARK  282  A    between atoms: _686  and  _688
REMARK  283  A    between atoms: _688  and  _689
REMARK  284  A    between atoms: _688  and  _691
REMARK  285  A    between atoms: _691  and  _692
REMARK  286  A    between atoms: _695  and  _697
REMARK  287  A    between atoms: _697  and  _698
REMARK  288  A    between atoms: _697  and  _700
REMARK  289  A    between atoms: _700  and  _701
REMARK  290  A    between atoms: _701  and  _702
REMARK  291  A    between atoms: _702  and  _703
REMARK  292  A    between atoms: _703  and  _704
REMARK  293  A    between atoms: _708  and  _710
REMARK  294  A    between atoms: _710  and  _711
REMARK  295  A    between atoms: _710  and  _713
REMARK  296  A    between atoms: _713  and  _714
REMARK  297  A    between atoms: _719  and  _721
REMARK  298  A    between atoms: _721  and  _722
REMARK  299  A    between atoms: _721  and  _724
REMARK  300  A    between atoms: _724  and  _725
REMARK  301  A    between atoms: _735  and  _737
REMARK  302  A    between atoms: _737  and  _738
REMARK  303  A    between atoms: _737  and  _740
REMARK  304  A    between atoms: _740  and  _741
REMARK  305  A    between atoms: _741  and  _742
REMARK  306  A    between atoms: _745  and  _747
REMARK  307  A    between atoms: _747  and  _748
REMARK  308  A    between atoms: _747  and  _750
REMARK  309  A    between atoms: _750  and  _751
REMARK  310  A    between atoms: _754  and  _756
REMARK  311  A    between atoms: _756  and  _757
REMARK  312  A    between atoms: _756  and  _759
REMARK  313  A    between atoms: _759  and  _760
REMARK  314  A    between atoms: _765  and  _767
REMARK  315  A    between atoms: _767  and  _768
REMARK  316  A    between atoms: _767  and  _770
REMARK  317  A    between atoms: _770  and  _771
REMARK  318  A    between atoms: _777  and  _779
REMARK  319  A    between atoms: _779  and  _780
REMARK  320  A    between atoms: _779  and  _782
REMARK  321  A    between atoms: _782  and  _783
REMARK  322  A    between atoms: _785  and  _787
REMARK  323  A    between atoms: _787  and  _788
REMARK  324  A    between atoms: _790  and  _792
REMARK  325  A    between atoms: _792  and  _793
REMARK  326  A    between atoms: _792  and  _795
REMARK  327  A    between atoms: _795  and  _796
REMARK  328  A    between atoms: _801  and  _802
REMARK  329  A    between atoms: _804  and  _806
REMARK  330  A    between atoms: _806  and  _807
REMARK  331  A    between atoms: _806  and  _809
REMARK  332  A    between atoms: _809  and  _810
REMARK  333  A    between atoms: _815  and  _816
REMARK  334  A    between atoms: _818  and  _820
REMARK  335  A    between atoms: _820  and  _821
REMARK  336  A    between atoms: _820  and  _823
REMARK  337  A    between atoms: _823  and  _824
REMARK  338  A    between atoms: _828  and  ZN_938
REMARK  339  A    between atoms: _829  and  _831
REMARK  340  A    between atoms: _831  and  _832
REMARK  341  A    between atoms: _831  and  _834
REMARK  342  A    between atoms: _834  and  _835
REMARK  343  A    between atoms: _835  and  _836
REMARK  344  A    between atoms: _839  and  _841
REMARK  345  A    between atoms: _841  and  _842
REMARK  346  A    between atoms: _841  and  _844
REMARK  347  A    between atoms: _844  and  _845
REMARK  348  A    between atoms: _845  and  _846
REMARK  349  A    between atoms: _846  and  _847
REMARK  350  A    between atoms: _856  and  _858
REMARK  351  A    between atoms: _858  and  _859
REMARK  352  A    between atoms: _858  and  _861
REMARK  353  A    between atoms: _861  and  _862
REMARK  354  A    between atoms: _867  and  _868
REMARK  355  A    between atoms: _870  and  _872
REMARK  356  A    between atoms: _872  and  _873
REMARK  357  A    between atoms: _872  and  _875
REMARK  358  A    between atoms: _875  and  _876
REMARK  359  A    between atoms: _878  and  _880
REMARK  360  A    between atoms: _880  and  _881
REMARK  361  A    between atoms: _880  and  _883
REMARK  362  A    between atoms: _883  and  _884
REMARK  363  A    between atoms: _889  and  _891
REMARK  364  A    between atoms: _891  and  _892
REMARK  365  A    between atoms: _891  and  _894
REMARK  366  A    between atoms: _894  and  _895
REMARK  367  A    between atoms: _900  and  _902
REMARK  368  A    between atoms: _902  and  _903
REMARK  369  A    between atoms: _902  and  _905
REMARK  370  A    between atoms: _905  and  _906
REMARK  371  A    between atoms: _906  and  _907
REMARK  372  A    between atoms: _907  and  _908
REMARK  373  A    between atoms: _908  and  _909
REMARK  374  A    between atoms: _913  and  _915
REMARK  375  A    between atoms: _915  and  _916
REMARK  376  A    between atoms: _915  and  _918
REMARK  377  A    between atoms: _918  and  _919
REMARK  378  A    between atoms: _924  and  _925
REMARK  379  A    between atoms: _927  and  _929
REMARK  380  A    between atoms: _929  and  _930
REMARK  381  A    between atoms: _933  and  _935
REMARK  382  A    between atoms: _935  and  _936
REMARK                            x       y       z     vdW  Elec       q    Type
REMARK                         _______ _______ _______ _____ _____    ______ ____
ROOT
ATOM      1  O   HOH     1      25.368  43.711  38.504  0.00  0.00    +0.000 OA
ENDROOT
TORSDOF 0
REMARK  Name = ../refined-set-2016/2xeg/2xeg_pocket.pdb
REMARK  382 active torsions:
REMARK  status: ('A' for Active; 'I' for Inactive)
REMARK    1  A    between atoms: _1  and  _3
REMARK    2  A    between atoms: _3  and  _4
REMARK    3  A    between atoms: _7  and  _9
REMARK    4  A    between atoms: _9  and  _10
REMARK    5  A    between atoms: _9  and  _12
REMARK    6  A    between atoms: _12  and  _13
REMARK    7  A    between atoms: _19  and  _21
REMARK    8  A    between atoms: _21  and  _22
REMARK    9  A    between atoms: _21  and  _24
REMARK   10  A    between atoms: _24  and  _25
REMARK   11  A    between atoms: _30  and  _31
REMARK   12  A    between atoms: _33  and  _35
REMARK   13  A    between atoms: _35  and  _36
REMARK   14  A    between atoms: _38  and  _40
REMARK   15  A    between atoms: _40  and  _41
REMARK   16  A    between atoms: _40  and  _43
REMARK   17  A    between atoms: _43  and  _44
REMARK   18  A    between atoms: _44  and  _45
REMARK   19  A    between atoms: _45  and  _46
REMARK   20  A    between atoms: _46  and  _47
REMARK   21  A    between atoms: _51  and  _53
REMARK   22  A    between atoms: _53  and  _54
REMARK   23  A    between atoms: _53  and  _56
REMARK   24  A    between atoms: _59  and  _61
REMARK   25  A    between atoms: _61  and  _62
REMARK   26  A    between atoms: _61  and  _64
REMARK   27  A    between atoms: _64  and  _65
REMARK   28  A    between atoms: _71  and  _73
REMARK   29  A    between atoms: _73  and  _74
REMARK   30  A    between atoms: _73  and  _76
REMARK   31  A    between atoms: _76  and  _77
REMARK   32  A    between atoms: _77  and  _78
REMARK   33  A    between atoms: _78  and  _79
REMARK   34  A    between atoms: _88  and  _90
REMARK   35  A    between atoms: _90  and  _91
REMARK   36  A    between atoms: _93  and  _95
REMARK   37  A    between atoms: _95  and  _96
REMARK   38  A    between atoms: _95  and  _98
REMARK   39  A    between atoms: _98  and  _99
REMARK   40  A    between atoms: _99  and  _100
REMARK   41  A    between atoms: _100  and  _101
REMARK   42  A    between atoms: _101  and  _102
REMARK   43  A    between atoms: _106  and  _108
REMARK   44  A    between atoms: _108  and  _109
REMARK   45  A    between atoms: _108  and  _111
REMARK   46  A    between atoms: _111  and  _112
REMARK   47  A    between atoms: _115  and  _117
REMARK   48  A    between atoms: _117  and  _118
REMARK   49  A    between atoms: _117  and  _120
REMARK   50  A    between atoms: _120  and  _121
REMARK   51  A    between atoms: _126  and  _127
REMARK   52  A    between atoms: _129  and  _131
REMARK   53  A    between atoms: _131  and  _132
REMARK   54  A    between atoms: _131  and  _134
REMARK   55  A    between atoms: _134  and  _135
REMARK   56  A    between atoms: _135  and  _136
REMARK   57  A    between atoms: _141  and  _143
REMARK   58  A    between atoms: _143  and  _144
REMARK   59  A    between atoms: _143  and  _146
REMARK   60  A    between atoms: _146  and  _147
REMARK   61  A    between atoms: _147  and  _148
REMARK   62  A    between atoms: _148  and  _149
REMARK   63  A    between atoms: _158  and  _160
REMARK   64  A    between atoms: _160  and  _161
REMARK   65  A    between atoms: _163  and  _165
REMARK   66  A    between atoms: _165  and  _166
REMARK   67  A    between atoms: _165  and  _168
REMARK   68  A    between atoms: _168  and  _169
REMARK   69  A    between atoms: _174  and  _176
REMARK   70  A    between atoms: _176  and  _177
REMARK   71  A    between atoms: _176  and  _179
REMARK   72  A    between atoms: _179  and  _180
REMARK   73  A    between atoms: _183  and  _185
REMARK   74  A    between atoms: _185  and  _186
REMARK   75  A    between atoms: _185  and  _188
REMARK   76  A    between atoms: _188  and  _189
REMARK   77  A    between atoms: _192  and  _194
REMARK   78  A    between atoms: _194  and  _195
REMARK   79  A    between atoms: _194  and  _197
REMARK   80  A    between atoms: _197  and  _198
REMARK   81  A    between atoms: _203  and  _205
REMARK   82  A    between atoms: _205  and  _206
REMARK   83  A    between atoms: _205  and  _208
REMARK   84  A    between atoms: _208  and  _209
REMARK   85  A    between atoms: _212  and  _214
REMARK   86  A    between atoms: _214  and  _215
REMARK   87  A    between atoms: _214  and  _217
REMARK   88  A    between atoms: _217  and  _218
REMARK   89  A    between atoms: _223  and  _225
REMARK   90  A    between atoms: _225  and  _226
REMARK   91  A    between atoms: _228  and  _230
REMARK   92  A    between atoms: _230  and  _231
REMARK   93  A    between atoms: _230  and  _233
REMARK   94  A    between atoms: _233  and  _234
REMARK   95  A    between atoms: _238  and  ZN_939
REMARK   96  A    between atoms: _239  and  _241
REMARK   97  A    between atoms: _241  and  _242
REMARK   98  A    between atoms: _241  and  _244
REMARK   99  A    between atoms: _244  and  _245
REMARK  100  A    between atoms: _248  and  _250
REMARK  101  A    between atoms: _250  and  _251
REMARK  102  A    between atoms: _250  and  _253
REMARK  103  A    between atoms: _253  and  _254
REMARK  104  A    between atoms: _264  and  _266
REMARK  105  A    between atoms: _266  and  _267
REMARK  106  A    between atoms: _266  and  _269
REMARK  107  A    between atoms: _269  and  _270
REMARK  108  A    between atoms: _273  and  _275
REMARK  109  A    between atoms: _275  and  _276
REMARK  110  A    between atoms: _275  and  _278
REMARK  111  A    between atoms: _278  and  _279
REMARK  112  A    between atoms: _279  and  _280
REMARK  113  A    between atoms: _279  and  _281
REMARK  114  A    between atoms: _280  and  ZN_939
REMARK  115  A    between atoms: _281  and  ZN_938
REMARK  116  A    between atoms: _283  and  _284
REMARK  117  A    between atoms: _289  and  _291
REMARK  118  A    between atoms: _291  and  _292
REMARK  119  A    between atoms: _295  and  _297
REMARK  120  A    between atoms: _297  and  _298
REMARK  121  A    between atoms: _297  and  _300
REMARK  122  A    between atoms: _300  and  _301
REMARK  123  A    between atoms: _301  and  _302
REMARK  124  A    between atoms: _305  and  _307
REMARK  125  A    between atoms: _307  and  _308
REMARK  126  A    between atoms: _307  and  _310
REMARK  127  A    between atoms: _310  and  _311
REMARK  128  A    between atoms: _311  and  _312
REMARK  129  A    between atoms: _312  and  _314
REMARK  130  A    between atoms: _314  and  ZN_938
REMARK  131  A    between atoms: _315  and  _317
REMARK  132  A    between atoms: _317  and  _318
REMARK  133  A    between atoms: _317  and  _320
REMARK  134  A    between atoms: _320  and  _321
REMARK  135  A    between atoms: _327  and  _329
REMARK  136  A    between atoms: _329  and  _330
REMARK  137  A    between atoms: _332  and  _334
REMARK  138  A    between atoms: _334  and  _335
REMARK  139  A    between atoms: _334  and  _337
REMARK  140  A    between atoms: _337  and  _338
REMARK  141  A    between atoms: _341  and  _343
REMARK  142  A    between atoms: _343  and  _344
REMARK  143  A    between atoms: _343  and  _346
REMARK  144  A    between atoms: _346  and  _347
REMARK  145  A    between atoms: _350  and  _352
REMARK  146  A    between atoms: _352  and  _353
REMARK  147  A    between atoms: _352  and  _355
REMARK  148  A    between atoms: _355  and  _356
REMARK  149  A    between atoms: _361  and  _363
REMARK  150  A    between atoms: _363  and  _364
REMARK  151  A    between atoms: _363  and  _366
REMARK  152  A    between atoms: _366  and  _367
REMARK  153  A    between atoms: _367  and  _369
REMARK  154  A    between atoms: _369  and  ZN_939
REMARK  155  A    between atoms: _370  and  _372
REMARK  156  A    between atoms: _372  and  _373
REMARK  157  A    between atoms: _372  and  _375
REMARK  158  A    between atoms: _375  and  _376
REMARK  159  A    between atoms: _378  and  _380
REMARK  160  A    between atoms: _380  and  _381
REMARK  161  A    between atoms: _380  and  _383
REMARK  162  A    between atoms: _383  and  _384
REMARK  163  A    between atoms: _386  and  _388
REMARK  164  A    between atoms: _388  and  _389
REMARK  165  A    between atoms: _388  and  _391
REMARK  166  A    between atoms: _391  and  _392
REMARK  167  A    between atoms: _395  and  _397
REMARK  168  A    between atoms: _397  and  _398
REMARK  169  A    between atoms: _397  and  _400
REMARK  170  A    between atoms: _400  and  _401
REMARK  171  A    between atoms: _401  and  _402
REMARK  172  A    between atoms: _405  and  _407
REMARK  173  A    between atoms: _407  and  _408
REMARK  174  A    between atoms: _407  and  _410
REMARK  175  A    between atoms: _410  and  _411
REMARK  176  A    between atoms: _416  and  _417
REMARK  177  A    between atoms: _419  and  _421
REMARK  178  A    between atoms: _421  and  _422
REMARK  179  A    between atoms: _421  and  _424
REMARK  180  A    between atoms: _424  and  _425
REMARK  181  A    between atoms: _428  and  _430
REMARK  182  A    between atoms: _430  and  _431
REMARK  183  A    between atoms: _430  and  _433
REMARK  184  A    between atoms: _433  and  _434
REMARK  185  A    between atoms: _437  and  _439
REMARK  186  A    between atoms: _439  and  _440
REMARK  187  A    between atoms: _439  and  _442
REMARK  188  A    between atoms: _442  and  _443
REMARK  189  A    between atoms: _443  and  _444
REMARK  190  A    between atoms: _444  and  _445
REMARK  191  A    between atoms: _454  and  _456
REMARK  192  A    between atoms: _456  and  _457
REMARK  193  A    between atoms: _456  and  _459
REMARK  194  A    between atoms: _462  and  _464
REMARK  195  A    between atoms: _464  and  _465
REMARK  196  A    between atoms: _464  and  _467
REMARK  197  A    between atoms: _467  and  _468
REMARK  198  A    between atoms: _471  and  _473
REMARK  199  A    between atoms: _473  and  _474
REMARK  200  A    between atoms: _473  and  _476
REMARK  201  A    between atoms: _476  and  _477
REMARK  202  A    between atoms: _487  and  _489
REMARK  203  A    between atoms: _489  and  _490
REMARK  204  A    between atoms: _489  and  _492
REMARK  205  A    between atoms: _492  and  _493
REMARK  206  A    between atoms: _493  and  _494
REMARK  207  A    between atoms: _494  and  _495
REMARK  208  A    between atoms: _495  and  _496
REMARK  209  A    between atoms: _500  and  _502
REMARK  210  A    between atoms: _502  and  _503
REMARK  211  A    between atoms: _502  and  _505
REMARK  212  A    between atoms: _505  and  _506
REMARK  213  A    between atoms: _509  and  _510
REMARK  214  A    between atoms: _516  and  _517
REMARK  215  A    between atoms: _522  and  _524
REMARK  216  A    between atoms: _524  and  _525
REMARK  217  A    between atoms: _524  and  _527
REMARK  218  A    between atoms: _527  and  _528
REMARK  219  A    between atoms: _528  and  _529
REMARK  220  A    between atoms: _529  and  _530
REMARK  221  A    between atoms: _539  and  _541
REMARK  222  A    between atoms: _541  and  _542
REMARK  223  A    between atoms: _541  and  _544
REMARK  224  A    between atoms: _544  and  _545
REMARK  225  A    between atoms: _548  and  _550
REMARK  226  A    between atoms: _550  and  _551
REMARK  227  A    between atoms: _550  and  _553
REMARK  228  A    between atoms: _553  and  _554
REMARK  229  A    between atoms: _556  and  _558
REMARK  230  A    between atoms: _558  and  _559
REMARK  231  A    between atoms: _558  and  _561
REMARK  232  A    between atoms: _561  and  _562
REMARK  233  A    between atoms: _562  and  _563
REMARK  234  A    between atoms: _563  and  _564
REMARK  235  A    between atoms: _564  and  _565
REMARK  236  A    between atoms: _569  and  _571
REMARK  237  A    between atoms: _571  and  _572
REMARK  238  A    between atoms: _571  and  _574
REMARK  239  A    between atoms: _574  and  _575
REMARK  240  A    between atoms: _578  and  _580
REMARK  241  A    between atoms: _580  and  _581
REMARK  242  A    between atoms: _583  and  _585
REMARK  243  A    between atoms: _585  and  _586
REMARK  244  A    between atoms: _585  and  _588
REMARK  245  A    between atoms: _588  and  _589
REMARK  246  A    between atoms: _591  and  _593
REMARK  247  A    between atoms: _593  and  _594
REMARK  248  A    between atoms: _596  and  _598
REMARK  249  A    between atoms: _598  and  _599
REMARK  250  A    between atoms: _598  and  _601
REMARK  251  A    between atoms: _601  and  _602
REMARK  252  A    between atoms: _607  and  _609
REMARK  253  A    between atoms: _609  and  _610
REMARK  254  A    between atoms: _609  and  _612
REMARK  255  A    between atoms: _612  and  _613
REMARK  256  A    between atoms: _616  and  _618
REMARK  257  A    between atoms: _618  and  _619
REMARK  258  A    between atoms: _618  and  _621
REMARK  259  A    between atoms: _621  and  _622
REMARK  260  A    between atoms: _628  and  _630
REMARK  261  A    between atoms: _630  and  _631
REMARK  262  A    between atoms: _630  and  _633
REMARK  263  A    between atoms: _633  and  _634
REMARK  264  A    between atoms: _634  and  _635
REMARK  265  A    between atoms: _638  and  _640
REMARK  266  A    between atoms: _640  and  _641
REMARK  267  A    between atoms: _640  and  _643
REMARK  268  A    between atoms: _643  and  _644
REMARK  269  A    between atoms: _644  and  _645
REMARK  270  A    between atoms: _645  and  _646
REMARK  271  A    between atoms: _655  and  _657
REMARK  272  A    between atoms: _657  and  _658
REMARK  273  A    between atoms: _657  and  _660
REMARK  274  A    between atoms: _660  and  _661
REMARK  275  A    between atoms: _661  and  _662
REMARK  276  A    between atoms: _662  and  _663
REMARK  277  A    between atoms: _672  and  _674
REMARK  278  A    between atoms: _674  and  _675
REMARK  279  A    between atoms: _674  and  _677
REMARK  280  A    between atoms: _677  and  _678
REMARK  281  A    between atoms: _683  and  _684
REMARK  282  A    between atoms: _686  and  _688
REMARK  283  A    between atoms: _688  and  _689
REMARK  284  A    between atoms: _688  and  _691
REMARK  285  A    between atoms: _691  and  _692
REMARK  286  A    between atoms: _695  and  _697
REMARK  287  A    between atoms: _697  and  _698
REMARK  288  A    between atoms: _697  and  _700
REMARK  289  A    between atoms: _700  and  _701
REMARK  290  A    between atoms: _701  and  _702
REMARK  291  A    between atoms: _702  and  _703
REMARK  292  A    between atoms: _703  and  _704
REMARK  293  A    between atoms: _708  and  _710
REMARK  294  A    between atoms: _710  and  _711
REMARK  295  A    between atoms: _710  and  _713
REMARK  296  A    between atoms: _713  and  _714
REMARK  297  A    between atoms: _719  and  _721
REMARK  298  A    between atoms: _721  and  _722
REMARK  299  A    between atoms: _721  and  _724
REMARK  300  A    between atoms: _724  and  _725
REMARK  301  A    between atoms: _735  and  _737
REMARK  302  A    between atoms: _737  and  _738
REMARK  303  A    between atoms: _737  and  _740
REMARK  304  A    between atoms: _740  and  _741
REMARK  305  A    between atoms: _741  and  _742
REMARK  306  A    between atoms: _745  and  _747
REMARK  307  A    between atoms: _747  and  _748
REMARK  308  A    between atoms: _747  and  _750
REMARK  309  A    between atoms: _750  and  _751
REMARK  310  A    between atoms: _754  and  _756
REMARK  311  A    between atoms: _756  and  _757
REMARK  312  A    between atoms: _756  and  _759
REMARK  313  A    between atoms: _759  and  _760
REMARK  314  A    between atoms: _765  and  _767
REMARK  315  A    between atoms: _767  and  _768
REMARK  316  A    between atoms: _767  and  _770
REMARK  317  A    between atoms: _770  and  _771
REMARK  318  A    between atoms: _777  and  _779
REMARK  319  A    between atoms: _779  and  _780
REMARK  320  A    between atoms: _779  and  _782
REMARK  321  A    between atoms: _782  and  _783
REMARK  322  A    between atoms: _785  and  _787
REMARK  323  A    between atoms: _787  and  _788
REMARK  324  A    between atoms: _790  and  _792
REMARK  325  A    between atoms: _792  and  _793
REMARK  326  A    between atoms: _792  and  _795
REMARK  327  A    between atoms: _795  and  _796
REMARK  328  A    between atoms: _801  and  _802
REMARK  329  A    between atoms: _804  and  _806
REMARK  330  A    between atoms: _806  and  _807
REMARK  331  A    between atoms: _806  and  _809
REMARK  332  A    between atoms: _809  and  _810
REMARK  333  A    between atoms: _815  and  _816
REMARK  334  A    between atoms: _818  and  _820
REMARK  335  A    between atoms: _820  and  _821
REMARK  336  A    between atoms: _820  and  _823
REMARK  337  A    between atoms: _823  and  _824
REMARK  338  A    between atoms: _828  and  ZN_938
REMARK  339  A    between atoms: _829  and  _831
REMARK  340  A    between atoms: _831  and  _832
REMARK  341  A    between atoms: _831  and  _834
REMARK  342  A    between atoms: _834  and  _835
REMARK  343  A    between atoms: _835  and  _836
REMARK  344  A    between atoms: _839  and  _841
REMARK  345  A    between atoms: _841  and  _842
REMARK  346  A    between atoms: _841  and  _844
REMARK  347  A    between atoms: _844  and  _845
REMARK  348  A    between atoms: _845  and  _846
REMARK  349  A    between atoms: _846  and  _847
REMARK  350  A    between atoms: _856  and  _858
REMARK  351  A    between atoms: _858  and  _859
REMARK  352  A    between atoms: _858  and  _861
REMARK  353  A    between atoms: _861  and  _862
REMARK  354  A    between atoms: _867  and  _868
REMARK  355  A    between atoms: _870  and  _872
REMARK  356  A    between atoms: _872  and  _873
REMARK  357  A    between atoms: _872  and  _875
REMARK  358  A    between atoms: _875  and  _876
REMARK  359  A    between atoms: _878  and  _880
REMARK  360  A    between atoms: _880  and  _881
REMARK  361  A    between atoms: _880  and  _883
REMARK  362  A    between atoms: _883  and  _884
REMARK  363  A    between atoms: _889  and  _891
REMARK  364  A    between atoms: _891  and  _892
REMARK  365  A    between atoms: _891  and  _894
REMARK  366  A    between atoms: _894  and  _895
REMARK  367  A    between atoms: _900  and  _902
REMARK  368  A    between atoms: _902  and  _903
REMARK  369  A    between atoms: _902  and  _905
REMARK  370  A    between atoms: _905  and  _906
REMARK  371  A    between atoms: _906  and  _907
REMARK  372  A    between atoms: _907  and  _908
REMARK  373  A    between atoms: _908  and  _909
REMARK  374  A    between atoms: _913  and  _915
REMARK  375  A    between atoms: _915  and  _916
REMARK  376  A    between atoms: _915  and  _918
REMARK  377  A    between atoms: _918  and  _919
REMARK  378  A    between atoms: _924  and  _925
REMARK  379  A    between atoms: _927  and  _929
REMARK  380  A    between atoms: _929  and  _930
REMARK  381  A    between atoms: _933  and  _935
REMARK  382  A    between atoms: _935  and  _936
REMARK                            x       y       z     vdW  Elec       q    Type
REMARK                         _______ _______ _______ _____ _____    ______ ____
ROOT
ATOM      1  O   HOH     1      21.351  42.185  46.277  0.00  0.00    +0.000 OA
ENDROOT
TORSDOF 0
REMARK  Name = ../refined-set-2016/2xeg/2xeg_pocket.pdb
REMARK  382 active torsions:
REMARK  status: ('A' for Active; 'I' for Inactive)
REMARK    1  A    between atoms: _1  and  _3
REMARK    2  A    between atoms: _3  and  _4
REMARK    3  A    between atoms: _7  and  _9
REMARK    4  A    between atoms: _9  and  _10
REMARK    5  A    between atoms: _9  and  _12
REMARK    6  A    between atoms: _12  and  _13
REMARK    7  A    between atoms: _19  and  _21
REMARK    8  A    between atoms: _21  and  _22
REMARK    9  A    between atoms: _21  and  _24
REMARK   10  A    between atoms: _24  and  _25
REMARK   11  A    between atoms: _30  and  _31
REMARK   12  A    between atoms: _33  and  _35
REMARK   13  A    between atoms: _35  and  _36
REMARK   14  A    between atoms: _38  and  _40
REMARK   15  A    between atoms: _40  and  _41
REMARK   16  A    between atoms: _40  and  _43
REMARK   17  A    between atoms: _43  and  _44
REMARK   18  A    between atoms: _44  and  _45
REMARK   19  A    between atoms: _45  and  _46
REMARK   20  A    between atoms: _46  and  _47
REMARK   21  A    between atoms: _51  and  _53
REMARK   22  A    between atoms: _53  and  _54
REMARK   23  A    between atoms: _53  and  _56
REMARK   24  A    between atoms: _59  and  _61
REMARK   25  A    between atoms: _61  and  _62
REMARK   26  A    between atoms: _61  and  _64
REMARK   27  A    between atoms: _64  and  _65
REMARK   28  A    between atoms: _71  and  _73
REMARK   29  A    between atoms: _73  and  _74
REMARK   30  A    between atoms: _73  and  _76
REMARK   31  A    between atoms: _76  and  _77
REMARK   32  A    between atoms: _77  and  _78
REMARK   33  A    between atoms: _78  and  _79
REMARK   34  A    between atoms: _88  and  _90
REMARK   35  A    between atoms: _90  and  _91
REMARK   36  A    between atoms: _93  and  _95
REMARK   37  A    between atoms: _95  and  _96
REMARK   38  A    between atoms: _95  and  _98
REMARK   39  A    between atoms: _98  and  _99
REMARK   40  A    between atoms: _99  and  _100
REMARK   41  A    between atoms: _100  and  _101
REMARK   42  A    between atoms: _101  and  _102
REMARK   43  A    between atoms: _106  and  _108
REMARK   44  A    between atoms: _108  and  _109
REMARK   45  A    between atoms: _108  and  _111
REMARK   46  A    between atoms: _111  and  _112
REMARK   47  A    between atoms: _115  and  _117
REMARK   48  A    between atoms: _117  and  _118
REMARK   49  A    between atoms: _117  and  _120
REMARK   50  A    between atoms: _120  and  _121
REMARK   51  A    between atoms: _126  and  _127
REMARK   52  A    between atoms: _129  and  _131
REMARK   53  A    between atoms: _131  and  _132
REMARK   54  A    between atoms: _131  and  _134
REMARK   55  A    between atoms: _134  and  _135
REMARK   56  A    between atoms: _135  and  _136
REMARK   57  A    between atoms: _141  and  _143
REMARK   58  A    between atoms: _143  and  _144
REMARK   59  A    between atoms: _143  and  _146
REMARK   60  A    between atoms: _146  and  _147
REMARK   61  A    between atoms: _147  and  _148
REMARK   62  A    between atoms: _148  and  _149
REMARK   63  A    between atoms: _158  and  _160
REMARK   64  A    between atoms: _160  and  _161
REMARK   65  A    between atoms: _163  and  _165
REMARK   66  A    between atoms: _165  and  _166
REMARK   67  A    between atoms: _165  and  _168
REMARK   68  A    between atoms: _168  and  _169
REMARK   69  A    between atoms: _174  and  _176
REMARK   70  A    between atoms: _176  and  _177
REMARK   71  A    between atoms: _176  and  _179
REMARK   72  A    between atoms: _179  and  _180
REMARK   73  A    between atoms: _183  and  _185
REMARK   74  A    between atoms: _185  and  _186
REMARK   75  A    between atoms: _185  and  _188
REMARK   76  A    between atoms: _188  and  _189
REMARK   77  A    between atoms: _192  and  _194
REMARK   78  A    between atoms: _194  and  _195
REMARK   79  A    between atoms: _194  and  _197
REMARK   80  A    between atoms: _197  and  _198
REMARK   81  A    between atoms: _203  and  _205
REMARK   82  A    between atoms: _205  and  _206
REMARK   83  A    between atoms: _205  and  _208
REMARK   84  A    between atoms: _208  and  _209
REMARK   85  A    between atoms: _212  and  _214
REMARK   86  A    between atoms: _214  and  _215
REMARK   87  A    between atoms: _214  and  _217
REMARK   88  A    between atoms: _217  and  _218
REMARK   89  A    between atoms: _223  and  _225
REMARK   90  A    between atoms: _225  and  _226
REMARK   91  A    between atoms: _228  and  _230
REMARK   92  A    between atoms: _230  and  _231
REMARK   93  A    between atoms: _230  and  _233
REMARK   94  A    between atoms: _233  and  _234
REMARK   95  A    between atoms: _238  and  ZN_939
REMARK   96  A    between atoms: _239  and  _241
REMARK   97  A    between atoms: _241  and  _242
REMARK   98  A    between atoms: _241  and  _244
REMARK   99  A    between atoms: _244  and  _245
REMARK  100  A    between atoms: _248  and  _250
REMARK  101  A    between atoms: _250  and  _251
REMARK  102  A    between atoms: _250  and  _253
REMARK  103  A    between atoms: _253  and  _254
REMARK  104  A    between atoms: _264  and  _266
REMARK  105  A    between atoms: _266  and  _267
REMARK  106  A    between atoms: _266  and  _269
REMARK  107  A    between atoms: _269  and  _270
REMARK  108  A    between atoms: _273  and  _275
REMARK  109  A    between atoms: _275  and  _276
REMARK  110  A    between atoms: _275  and  _278
REMARK  111  A    between atoms: _278  and  _279
REMARK  112  A    between atoms: _279  and  _280
REMARK  113  A    between atoms: _279  and  _281
REMARK  114  A    between atoms: _280  and  ZN_939
REMARK  115  A    between atoms: _281  and  ZN_938
REMARK  116  A    between atoms: _283  and  _284
REMARK  117  A    between atoms: _289  and  _291
REMARK  118  A    between atoms: _291  and  _292
REMARK  119  A    between atoms: _295  and  _297
REMARK  120  A    between atoms: _297  and  _298
REMARK  121  A    between atoms: _297  and  _300
REMARK  122  A    between atoms: _300  and  _301
REMARK  123  A    between atoms: _301  and  _302
REMARK  124  A    between atoms: _305  and  _307
REMARK  125  A    between atoms: _307  and  _308
REMARK  126  A    between atoms: _307  and  _310
REMARK  127  A    between atoms: _310  and  _311
REMARK  128  A    between atoms: _311  and  _312
REMARK  129  A    between atoms: _312  and  _314
REMARK  130  A    between atoms: _314  and  ZN_938
REMARK  131  A    between atoms: _315  and  _317
REMARK  132  A    between atoms: _317  and  _318
REMARK  133  A    between atoms: _317  and  _320
REMARK  134  A    between atoms: _320  and  _321
REMARK  135  A    between atoms: _327  and  _329
REMARK  136  A    between atoms: _329  and  _330
REMARK  137  A    between atoms: _332  and  _334
REMARK  138  A    between atoms: _334  and  _335
REMARK  139  A    between atoms: _334  and  _337
REMARK  140  A    between atoms: _337  and  _338
REMARK  141  A    between atoms: _341  and  _343
REMARK  142  A    between atoms: _343  and  _344
REMARK  143  A    between atoms: _343  and  _346
REMARK  144  A    between atoms: _346  and  _347
REMARK  145  A    between atoms: _350  and  _352
REMARK  146  A    between atoms: _352  and  _353
REMARK  147  A    between atoms: _352  and  _355
REMARK  148  A    between atoms: _355  and  _356
REMARK  149  A    between atoms: _361  and  _363
REMARK  150  A    between atoms: _363  and  _364
REMARK  151  A    between atoms: _363  and  _366
REMARK  152  A    between atoms: _366  and  _367
REMARK  153  A    between atoms: _367  and  _369
REMARK  154  A    between atoms: _369  and  ZN_939
REMARK  155  A    between atoms: _370  and  _372
REMARK  156  A    between atoms: _372  and  _373
REMARK  157  A    between atoms: _372  and  _375
REMARK  158  A    between atoms: _375  and  _376
REMARK  159  A    between atoms: _378  and  _380
REMARK  160  A    between atoms: _380  and  _381
REMARK  161  A    between atoms: _380  and  _383
REMARK  162  A    between atoms: _383  and  _384
REMARK  163  A    between atoms: _386  and  _388
REMARK  164  A    between atoms: _388  and  _389
REMARK  165  A    between atoms: _388  and  _391
REMARK  166  A    between atoms: _391  and  _392
REMARK  167  A    between atoms: _395  and  _397
REMARK  168  A    between atoms: _397  and  _398
REMARK  169  A    between atoms: _397  and  _400
REMARK  170  A    between atoms: _400  and  _401
REMARK  171  A    between atoms: _401  and  _402
REMARK  172  A    between atoms: _405  and  _407
REMARK  173  A    between atoms: _407  and  _408
REMARK  174  A    between atoms: _407  and  _410
REMARK  175  A    between atoms: _410  and  _411
REMARK  176  A    between atoms: _416  and  _417
REMARK  177  A    between atoms: _419  and  _421
REMARK  178  A    between atoms: _421  and  _422
REMARK  179  A    between atoms: _421  and  _424
REMARK  180  A    between atoms: _424  and  _425
REMARK  181  A    between atoms: _428  and  _430
REMARK  182  A    between atoms: _430  and  _431
REMARK  183  A    between atoms: _430  and  _433
REMARK  184  A    between atoms: _433  and  _434
REMARK  185  A    between atoms: _437  and  _439
REMARK  186  A    between atoms: _439  and  _440
REMARK  187  A    between atoms: _439  and  _442
REMARK  188  A    between atoms: _442  and  _443
REMARK  189  A    between atoms: _443  and  _444
REMARK  190  A    between atoms: _444  and  _445
REMARK  191  A    between atoms: _454  and  _456
REMARK  192  A    between atoms: _456  and  _457
REMARK  193  A    between atoms: _456  and  _459
REMARK  194  A    between atoms: _462  and  _464
REMARK  195  A    between atoms: _464  and  _465
REMARK  196  A    between atoms: _464  and  _467
REMARK  197  A    between atoms: _467  and  _468
REMARK  198  A    between atoms: _471  and  _473
REMARK  199  A    between atoms: _473  and  _474
REMARK  200  A    between atoms: _473  and  _476
REMARK  201  A    between atoms: _476  and  _477
REMARK  202  A    between atoms: _487  and  _489
REMARK  203  A    between atoms: _489  and  _490
REMARK  204  A    between atoms: _489  and  _492
REMARK  205  A    between atoms: _492  and  _493
REMARK  206  A    between atoms: _493  and  _494
REMARK  207  A    between atoms: _494  and  _495
REMARK  208  A    between atoms: _495  and  _496
REMARK  209  A    between atoms: _500  and  _502
REMARK  210  A    between atoms: _502  and  _503
REMARK  211  A    between atoms: _502  and  _505
REMARK  212  A    between atoms: _505  and  _506
REMARK  213  A    between atoms: _509  and  _510
REMARK  214  A    between atoms: _516  and  _517
REMARK  215  A    between atoms: _522  and  _524
REMARK  216  A    between atoms: _524  and  _525
REMARK  217  A    between atoms: _524  and  _527
REMARK  218  A    between atoms: _527  and  _528
REMARK  219  A    between atoms: _528  and  _529
REMARK  220  A    between atoms: _529  and  _530
REMARK  221  A    between atoms: _539  and  _541
REMARK  222  A    between atoms: _541  and  _542
REMARK  223  A    between atoms: _541  and  _544
REMARK  224  A    between atoms: _544  and  _545
REMARK  225  A    between atoms: _548  and  _550
REMARK  226  A    between atoms: _550  and  _551
REMARK  227  A    between atoms: _550  and  _553
REMARK  228  A    between atoms: _553  and  _554
REMARK  229  A    between atoms: _556  and  _558
REMARK  230  A    between atoms: _558  and  _559
REMARK  231  A    between atoms: _558  and  _561
REMARK  232  A    between atoms: _561  and  _562
REMARK  233  A    between atoms: _562  and  _563
REMARK  234  A    between atoms: _563  and  _564
REMARK  235  A    between atoms: _564  and  _565
REMARK  236  A    between atoms: _569  and  _571
REMARK  237  A    between atoms: _571  and  _572
REMARK  238  A    between atoms: _571  and  _574
REMARK  239  A    between atoms: _574  and  _575
REMARK  240  A    between atoms: _578  and  _580
REMARK  241  A    between atoms: _580  and  _581
REMARK  242  A    between atoms: _583  and  _585
REMARK  243  A    between atoms: _585  and  _586
REMARK  244  A    between atoms: _585  and  _588
REMARK  245  A    between atoms: _588  and  _589
REMARK  246  A    between atoms: _591  and  _593
REMARK  247  A    between atoms: _593  and  _594
REMARK  248  A    between atoms: _596  and  _598
REMARK  249  A    between atoms: _598  and  _599
REMARK  250  A    between atoms: _598  and  _601
REMARK  251  A    between atoms: _601  and  _602
REMARK  252  A    between atoms: _607  and  _609
REMARK  253  A    between atoms: _609  and  _610
REMARK  254  A    between atoms: _609  and  _612
REMARK  255  A    between atoms: _612  and  _613
REMARK  256  A    between atoms: _616  and  _618
REMARK  257  A    between atoms: _618  and  _619
REMARK  258  A    between atoms: _618  and  _621
REMARK  259  A    between atoms: _621  and  _622
REMARK  260  A    between atoms: _628  and  _630
REMARK  261  A    between atoms: _630  and  _631
REMARK  262  A    between atoms: _630  and  _633
REMARK  263  A    between atoms: _633  and  _634
REMARK  264  A    between atoms: _634  and  _635
REMARK  265  A    between atoms: _638  and  _640
REMARK  266  A    between atoms: _640  and  _641
REMARK  267  A    between atoms: _640  and  _643
REMARK  268  A    between atoms: _643  and  _644
REMARK  269  A    between atoms: _644  and  _645
REMARK  270  A    between atoms: _645  and  _646
REMARK  271  A    between atoms: _655  and  _657
REMARK  272  A    between atoms: _657  and  _658
REMARK  273  A    between atoms: _657  and  _660
REMARK  274  A    between atoms: _660  and  _661
REMARK  275  A    between atoms: _661  and  _662
REMARK  276  A    between atoms: _662  and  _663
REMARK  277  A    between atoms: _672  and  _674
REMARK  278  A    between atoms: _674  and  _675
REMARK  279  A    between atoms: _674  and  _677
REMARK  280  A    between atoms: _677  and  _678
REMARK  281  A    between atoms: _683  and  _684
REMARK  282  A    between atoms: _686  and  _688
REMARK  283  A    between atoms: _688  and  _689
REMARK  284  A    between atoms: _688  and  _691
REMARK  285  A    between atoms: _691  and  _692
REMARK  286  A    between atoms: _695  and  _697
REMARK  287  A    between atoms: _697  and  _698
REMARK  288  A    between atoms: _697  and  _700
REMARK  289  A    between atoms: _700  and  _701
REMARK  290  A    between atoms: _701  and  _702
REMARK  291  A    between atoms: _702  and  _703
REMARK  292  A    between atoms: _703  and  _704
REMARK  293  A    between atoms: _708  and  _710
REMARK  294  A    between atoms: _710  and  _711
REMARK  295  A    between atoms: _710  and  _713
REMARK  296  A    between atoms: _713  and  _714
REMARK  297  A    between atoms: _719  and  _721
REMARK  298  A    between atoms: _721  and  _722
REMARK  299  A    between atoms: _721  and  _724
REMARK  300  A    between atoms: _724  and  _725
REMARK  301  A    between atoms: _735  and  _737
REMARK  302  A    between atoms: _737  and  _738
REMARK  303  A    between atoms: _737  and  _740
REMARK  304  A    between atoms: _740  and  _741
REMARK  305  A    between atoms: _741  and  _742
REMARK  306  A    between atoms: _745  and  _747
REMARK  307  A    between atoms: _747  and  _748
REMARK  308  A    between atoms: _747  and  _750
REMARK  309  A    between atoms: _750  and  _751
REMARK  310  A    between atoms: _754  and  _756
REMARK  311  A    between atoms: _756  and  _757
REMARK  312  A    between atoms: _756  and  _759
REMARK  313  A    between atoms: _759  and  _760
REMARK  314  A    between atoms: _765  and  _767
REMARK  315  A    between atoms: _767  and  _768
REMARK  316  A    between atoms: _767  and  _770
REMARK  317  A    between atoms: _770  and  _771
REMARK  318  A    between atoms: _777  and  _779
REMARK  319  A    between atoms: _779  and  _780
REMARK  320  A    between atoms: _779  and  _782
REMARK  321  A    between atoms: _782  and  _783
REMARK  322  A    between atoms: _785  and  _787
REMARK  323  A    between atoms: _787  and  _788
REMARK  324  A    between atoms: _790  and  _792
REMARK  325  A    between atoms: _792  and  _793
REMARK  326  A    between atoms: _792  and  _795
REMARK  327  A    between atoms: _795  and  _796
REMARK  328  A    between atoms: _801  and  _802
REMARK  329  A    between atoms: _804  and  _806
REMARK  330  A    between atoms: _806  and  _807
REMARK  331  A    between atoms: _806  and  _809
REMARK  332  A    between atoms: _809  and  _810
REMARK  333  A    between atoms: _815  and  _816
REMARK  334  A    between atoms: _818  and  _820
REMARK  335  A    between atoms: _820  and  _821
REMARK  336  A    between atoms: _820  and  _823
REMARK  337  A    between atoms: _823  and  _824
REMARK  338  A    between atoms: _828  and  ZN_938
REMARK  339  A    between atoms: _829  and  _831
REMARK  340  A    between atoms: _831  and  _832
REMARK  341  A    between atoms: _831  and  _834
REMARK  342  A    between atoms: _834  and  _835
REMARK  343  A    between atoms: _835  and  _836
REMARK  344  A    between atoms: _839  and  _841
REMARK  345  A    between atoms: _841  and  _842
REMARK  346  A    between atoms: _841  and  _844
REMARK  347  A    between atoms: _844  and  _845
REMARK  348  A    between atoms: _845  and  _846
REMARK  349  A    between atoms: _846  and  _847
REMARK  350  A    between atoms: _856  and  _858
REMARK  351  A    between atoms: _858  and  _859
REMARK  352  A    between atoms: _858  and  _861
REMARK  353  A    between atoms: _861  and  _862
REMARK  354  A    between atoms: _867  and  _868
REMARK  355  A    between atoms: _870  and  _872
REMARK  356  A    between atoms: _872  and  _873
REMARK  357  A    between atoms: _872  and  _875
REMARK  358  A    between atoms: _875  and  _876
REMARK  359  A    between atoms: _878  and  _880
REMARK  360  A    between atoms: _880  and  _881
REMARK  361  A    between atoms: _880  and  _883
REMARK  362  A    between atoms: _883  and  _884
REMARK  363  A    between atoms: _889  and  _891
REMARK  364  A    between atoms: _891  and  _892
REMARK  365  A    between atoms: _891  and  _894
REMARK  366  A    between atoms: _894  and  _895
REMARK  367  A    between atoms: _900  and  _902
REMARK  368  A    between atoms: _902  and  _903
REMARK  369  A    between atoms: _902  and  _905
REMARK  370  A    between atoms: _905  and  _906
REMARK  371  A    between atoms: _906  and  _907
REMARK  372  A    between atoms: _907  and  _908
REMARK  373  A    between atoms: _908  and  _909
REMARK  374  A    between atoms: _913  and  _915
REMARK  375  A    between atoms: _915  and  _916
REMARK  376  A    between atoms: _915  and  _918
REMARK  377  A    between atoms: _918  and  _919
REMARK  378  A    between atoms: _924  and  _925
REMARK  379  A    between atoms: _927  and  _929
REMARK  380  A    between atoms: _929  and  _930
REMARK  381  A    between atoms: _933  and  _935
REMARK  382  A    between atoms: _935  and  _936
REMARK                            x       y       z     vdW  Elec       q    Type
REMARK                         _______ _______ _______ _____ _____    ______ ____
ROOT
ATOM      1  O   HOH     1      34.784  49.975  50.459  0.00  0.00    +0.000 OA
ENDROOT
TORSDOF 0
