REMARK  Name = ../refined-set-2016/4hws/4hws_pocket.pdb
REMARK  266 active torsions:
REMARK  status: ('A' for Active; 'I' for Inactive)
REMARK    1  A    between atoms: _1  and  _3
REMARK    2  A    between atoms: _3  and  _4
REMARK    3  A    between atoms: _6  and  _8
REMARK    4  A    between atoms: _8  and  _9
REMARK    5  A    between atoms: _8  and  _11
REMARK    6  A    between atoms: _14  and  _16
REMARK    7  A    between atoms: _16  and  _17
REMARK    8  A    between atoms: _16  and  _19
REMARK    9  A    between atoms: _19  and  _20
REMARK   10  A    between atoms: _25  and  _27
REMARK   11  A    between atoms: _27  and  _28
REMARK   12  A    between atoms: _27  and  _30
REMARK   13  A    between atoms: _30  and  _31
REMARK   14  A    between atoms: _36  and  _37
REMARK   15  A    between atoms: _40  and  _41
REMARK   16  A    between atoms: _46  and  _48
REMARK   17  A    between atoms: _48  and  _49
REMARK   18  A    between atoms: _48  and  _51
REMARK   19  A    between atoms: _51  and  _52
REMARK   20  A    between atoms: _52  and  _53
REMARK   21  A    between atoms: _55  and  _57
REMARK   22  A    between atoms: _57  and  _58
REMARK   23  A    between atoms: _57  and  _60
REMARK   24  A    between atoms: _60  and  _61
REMARK   25  A    between atoms: _66  and  _68
REMARK   26  A    between atoms: _68  and  _69
REMARK   27  A    between atoms: _68  and  _71
REMARK   28  A    between atoms: _71  and  _72
REMARK   29  A    between atoms: _72  and  ZN_650
REMARK   30  A    between atoms: _74  and  _75
REMARK   31  A    between atoms: _80  and  _82
REMARK   32  A    between atoms: _82  and  _83
REMARK   33  A    between atoms: _82  and  _85
REMARK   34  A    between atoms: _85  and  _86
REMARK   35  A    between atoms: _91  and  _93
REMARK   36  A    between atoms: _93  and  _94
REMARK   37  A    between atoms: _93  and  _96
REMARK   38  A    between atoms: _98  and  _100
REMARK   39  A    between atoms: _100  and  _101
REMARK   40  A    between atoms: _100  and  _103
REMARK   41  A    between atoms: _103  and  _104
REMARK   42  A    between atoms: _109  and  _111
REMARK   43  A    between atoms: _111  and  _112
REMARK   44  A    between atoms: _111  and  _114
REMARK   45  A    between atoms: _114  and  _115
REMARK   46  A    between atoms: _115  and  _116
REMARK   47  A    between atoms: _116  and  _117
REMARK   48  A    between atoms: _126  and  _128
REMARK   49  A    between atoms: _128  and  _129
REMARK   50  A    between atoms: _128  and  _131
REMARK   51  A    between atoms: _131  and  _132
REMARK   52  A    between atoms: _137  and  _139
REMARK   53  A    between atoms: _139  and  _140
REMARK   54  A    between atoms: _139  and  _142
REMARK   55  A    between atoms: _142  and  _143
REMARK   56  A    between atoms: _143  and  _144
REMARK   57  A    between atoms: _147  and  _149
REMARK   58  A    between atoms: _149  and  _150
REMARK   59  A    between atoms: _149  and  _152
REMARK   60  A    between atoms: _152  and  _153
REMARK   61  A    between atoms: _155  and  _157
REMARK   62  A    between atoms: _157  and  _158
REMARK   63  A    between atoms: _157  and  _160
REMARK   64  A    between atoms: _160  and  _161
REMARK   65  A    between atoms: _164  and  _166
REMARK   66  A    between atoms: _166  and  _167
REMARK   67  A    between atoms: _166  and  _169
REMARK   68  A    between atoms: _169  and  _170
REMARK   69  A    between atoms: _175  and  _177
REMARK   70  A    between atoms: _177  and  _178
REMARK   71  A    between atoms: _180  and  _182
REMARK   72  A    between atoms: _182  and  _183
REMARK   73  A    between atoms: _182  and  _185
REMARK   74  A    between atoms: _185  and  _186
REMARK   75  A    between atoms: _189  and  _191
REMARK   76  A    between atoms: _191  and  _192
REMARK   77  A    between atoms: _191  and  _194
REMARK   78  A    between atoms: _194  and  _195
REMARK   79  A    between atoms: _195  and  _196
REMARK   80  A    between atoms: _198  and  _200
REMARK   81  A    between atoms: _200  and  _201
REMARK   82  A    between atoms: _200  and  _203
REMARK   83  A    between atoms: _203  and  _204
REMARK   84  A    between atoms: _204  and  _205
REMARK   85  A    between atoms: _205  and  _206
REMARK   86  A    between atoms: _215  and  _217
REMARK   87  A    between atoms: _217  and  _218
REMARK   88  A    between atoms: _217  and  _220
REMARK   89  A    between atoms: _223  and  _225
REMARK   90  A    between atoms: _225  and  _226
REMARK   91  A    between atoms: _225  and  _228
REMARK   92  A    between atoms: _228  and  _229
REMARK   93  A    between atoms: _229  and  _230
REMARK   94  A    between atoms: _230  and  _231
REMARK   95  A    between atoms: _240  and  _242
REMARK   96  A    between atoms: _242  and  _243
REMARK   97  A    between atoms: _245  and  _247
REMARK   98  A    between atoms: _247  and  _248
REMARK   99  A    between atoms: _247  and  _250
REMARK  100  A    between atoms: _250  and  _251
REMARK  101  A    between atoms: _257  and  _259
REMARK  102  A    between atoms: _259  and  _260
REMARK  103  A    between atoms: _259  and  _262
REMARK  104  A    between atoms: _262  and  _263
REMARK  105  A    between atoms: _266  and  _268
REMARK  106  A    between atoms: _268  and  _269
REMARK  107  A    between atoms: _268  and  _271
REMARK  108  A    between atoms: _271  and  _272
REMARK  109  A    between atoms: _272  and  _273
REMARK  110  A    between atoms: _278  and  _280
REMARK  111  A    between atoms: _280  and  _281
REMARK  112  A    between atoms: _280  and  _283
REMARK  113  A    between atoms: _283  and  _284
REMARK  114  A    between atoms: _287  and  _289
REMARK  115  A    between atoms: _289  and  _290
REMARK  116  A    between atoms: _289  and  _292
REMARK  117  A    between atoms: _292  and  _293
REMARK  118  A    between atoms: _296  and  _298
REMARK  119  A    between atoms: _298  and  _299
REMARK  120  A    between atoms: _302  and  _304
REMARK  121  A    between atoms: _304  and  _305
REMARK  122  A    between atoms: _304  and  _307
REMARK  123  A    between atoms: _307  and  _308
REMARK  124  A    between atoms: _312  and  ZN_650
REMARK  125  A    between atoms: _313  and  _315
REMARK  126  A    between atoms: _315  and  _316
REMARK  127  A    between atoms: _315  and  _318
REMARK  128  A    between atoms: _318  and  _319
REMARK  129  A    between atoms: _322  and  _324
REMARK  130  A    between atoms: _324  and  _325
REMARK  131  A    between atoms: _324  and  _327
REMARK  132  A    between atoms: _327  and  _328
REMARK  133  A    between atoms: _330  and  _332
REMARK  134  A    between atoms: _332  and  _333
REMARK  135  A    between atoms: _332  and  _335
REMARK  136  A    between atoms: _335  and  _336
REMARK  137  A    between atoms: _336  and  _337
REMARK  138  A    between atoms: _340  and  _342
REMARK  139  A    between atoms: _342  and  _343
REMARK  140  A    between atoms: _345  and  _347
REMARK  141  A    between atoms: _347  and  _348
REMARK  142  A    between atoms: _351  and  _353
REMARK  143  A    between atoms: _353  and  _354
REMARK  144  A    between atoms: _353  and  _356
REMARK  145  A    between atoms: _356  and  _357
REMARK  146  A    between atoms: _363  and  _365
REMARK  147  A    between atoms: _365  and  _366
REMARK  148  A    between atoms: _365  and  _368
REMARK  149  A    between atoms: _368  and  _369
REMARK  150  A    between atoms: _374  and  _375
REMARK  151  A    between atoms: _377  and  _379
REMARK  152  A    between atoms: _379  and  _380
REMARK  153  A    between atoms: _379  and  _382
REMARK  154  A    between atoms: _382  and  _383
REMARK  155  A    between atoms: _383  and  _384
REMARK  156  A    between atoms: _384  and  _385
REMARK  157  A    between atoms: _385  and  _386
REMARK  158  A    between atoms: _390  and  _392
REMARK  159  A    between atoms: _392  and  _393
REMARK  160  A    between atoms: _392  and  _395
REMARK  161  A    between atoms: _395  and  _396
REMARK  162  A    between atoms: _399  and  _401
REMARK  163  A    between atoms: _401  and  _402
REMARK  164  A    between atoms: _401  and  _404
REMARK  165  A    between atoms: _404  and  _405
REMARK  166  A    between atoms: _405  and  _406
REMARK  167  A    between atoms: _409  and  _411
REMARK  168  A    between atoms: _411  and  _412
REMARK  169  A    between atoms: _411  and  _414
REMARK  170  A    between atoms: _414  and  _415
REMARK  171  A    between atoms: _425  and  _427
REMARK  172  A    between atoms: _427  and  _428
REMARK  173  A    between atoms: _427  and  _430
REMARK  174  A    between atoms: _430  and  _431
REMARK  175  A    between atoms: _431  and  _432
REMARK  176  A    between atoms: _437  and  _439
REMARK  177  A    between atoms: _439  and  _440
REMARK  178  A    between atoms: _439  and  _442
REMARK  179  A    between atoms: _444  and  _446
REMARK  180  A    between atoms: _446  and  _447
REMARK  181  A    between atoms: _449  and  _451
REMARK  182  A    between atoms: _451  and  _452
REMARK  183  A    between atoms: _451  and  _454
REMARK  184  A    between atoms: _454  and  _455
REMARK  185  A    between atoms: _458  and  _460
REMARK  186  A    between atoms: _460  and  _461
REMARK  187  A    between atoms: _460  and  _463
REMARK  188  A    between atoms: _466  and  _468
REMARK  189  A    between atoms: _468  and  _469
REMARK  190  A    between atoms: _468  and  _471
REMARK  191  A    between atoms: _471  and  _472
REMARK  192  A    between atoms: _472  and  _473
REMARK  193  A    between atoms: _478  and  _480
REMARK  194  A    between atoms: _480  and  _481
REMARK  195  A    between atoms: _480  and  _483
REMARK  196  A    between atoms: _483  and  _484
REMARK  197  A    between atoms: _487  and  _489
REMARK  198  A    between atoms: _489  and  _490
REMARK  199  A    between atoms: _489  and  _492
REMARK  200  A    between atoms: _492  and  _493
REMARK  201  A    between atoms: _496  and  _498
REMARK  202  A    between atoms: _498  and  _499
REMARK  203  A    between atoms: _498  and  _501
REMARK  204  A    between atoms: _501  and  _502
REMARK  205  A    between atoms: _502  and  _503
REMARK  206  A    between atoms: _505  and  _507
REMARK  207  A    between atoms: _507  and  _508
REMARK  208  A    between atoms: _507  and  _510
REMARK  209  A    between atoms: _510  and  _511
REMARK  210  A    between atoms: _514  and  _516
REMARK  211  A    between atoms: _516  and  _517
REMARK  212  A    between atoms: _516  and  _519
REMARK  213  A    between atoms: _519  and  _520
REMARK  214  A    between atoms: _521  and  ZN_650
REMARK  215  A    between atoms: _525  and  _527
REMARK  216  A    between atoms: _527  and  _528
REMARK  217  A    between atoms: _527  and  _530
REMARK  218  A    between atoms: _530  and  _531
REMARK  219  A    between atoms: _531  and  _532
REMARK  220  A    between atoms: _532  and  _533
REMARK  221  A    between atoms: _542  and  _544
REMARK  222  A    between atoms: _544  and  _545
REMARK  223  A    between atoms: _548  and  _550
REMARK  224  A    between atoms: _550  and  _551
REMARK  225  A    between atoms: _550  and  _553
REMARK  226  A    between atoms: _553  and  _554
REMARK  227  A    between atoms: _557  and  _559
REMARK  228  A    between atoms: _559  and  _560
REMARK  229  A    between atoms: _559  and  _562
REMARK  230  A    between atoms: _562  and  _563
REMARK  231  A    between atoms: _566  and  _568
REMARK  232  A    between atoms: _568  and  _569
REMARK  233  A    between atoms: _571  and  _573
REMARK  234  A    between atoms: _573  and  _574
REMARK  235  A    between atoms: _573  and  _576
REMARK  236  A    between atoms: _576  and  _577
REMARK  237  A    between atoms: _579  and  _581
REMARK  238  A    between atoms: _581  and  _582
REMARK  239  A    between atoms: _581  and  _584
REMARK  240  A    between atoms: _584  and  _585
REMARK  241  A    between atoms: _585  and  _586
REMARK  242  A    between atoms: _588  and  _590
REMARK  243  A    between atoms: _590  and  _591
REMARK  244  A    between atoms: _590  and  _593
REMARK  245  A    between atoms: _593  and  _594
REMARK  246  A    between atoms: _594  and  _595
REMARK  247  A    between atoms: _598  and  _600
REMARK  248  A    between atoms: _600  and  _601
REMARK  249  A    between atoms: _600  and  _603
REMARK  250  A    between atoms: _603  and  _604
REMARK  251  A    between atoms: _604  and  _605
REMARK  252  A    between atoms: _605  and  _606
REMARK  253  A    between atoms: _615  and  _617
REMARK  254  A    between atoms: _617  and  _618
REMARK  255  A    between atoms: _617  and  _620
REMARK  256  A    between atoms: _620  and  _621
REMARK  257  A    between atoms: _627  and  _629
REMARK  258  A    between atoms: _629  and  _630
REMARK  259  A    between atoms: _629  and  _632
REMARK  260  A    between atoms: _632  and  _633
REMARK  261  A    between atoms: _636  and  _638
REMARK  262  A    between atoms: _638  and  _639
REMARK  263  A    between atoms: _641  and  _643
REMARK  264  A    between atoms: _643  and  _644
REMARK  265  A    between atoms: _643  and  _646
REMARK  266  A    between atoms: _646  and  _647
REMARK                            x       y       z     vdW  Elec       q    Type
REMARK                         _______ _______ _______ _____ _____    ______ ____
ROOT
ATOM      1  CA  GLY A   1      29.602 -35.863 -11.867  0.00  0.00    +0.156 C 
ENDROOT
BRANCH   1   2
ATOM      2  N   GLY A   1      30.712 -35.982 -10.898  0.00  0.00    -0.238 NA
ATOM      3  H   GLY A   1      31.519 -36.597 -11.127  0.00  0.00    +0.142 HD
ENDBRANCH   1   2
BRANCH   1   4
ATOM      4  C   GLY A   1      29.326 -34.487 -12.454  0.00  0.00    +0.226 C 
ATOM      5  O   GLY A   1      28.229 -34.230 -12.991  0.00  0.00    -0.287 OA
ENDBRANCH   1   4
TORSDOF 2
REMARK  Name = ../refined-set-2016/4hws/4hws_pocket.pdb
REMARK  266 active torsions:
REMARK  status: ('A' for Active; 'I' for Inactive)
REMARK    1  A    between atoms: _1  and  _3
REMARK    2  A    between atoms: _3  and  _4
REMARK    3  A    between atoms: _6  and  _8
REMARK    4  A    between atoms: _8  and  _9
REMARK    5  A    between atoms: _8  and  _11
REMARK    6  A    between atoms: _14  and  _16
REMARK    7  A    between atoms: _16  and  _17
REMARK    8  A    between atoms: _16  and  _19
REMARK    9  A    between atoms: _19  and  _20
REMARK   10  A    between atoms: _25  and  _27
REMARK   11  A    between atoms: _27  and  _28
REMARK   12  A    between atoms: _27  and  _30
REMARK   13  A    between atoms: _30  and  _31
REMARK   14  A    between atoms: _36  and  _37
REMARK   15  A    between atoms: _40  and  _41
REMARK   16  A    between atoms: _46  and  _48
REMARK   17  A    between atoms: _48  and  _49
REMARK   18  A    between atoms: _48  and  _51
REMARK   19  A    between atoms: _51  and  _52
REMARK   20  A    between atoms: _52  and  _53
REMARK   21  A    between atoms: _55  and  _57
REMARK   22  A    between atoms: _57  and  _58
REMARK   23  A    between atoms: _57  and  _60
REMARK   24  A    between atoms: _60  and  _61
REMARK   25  A    between atoms: _66  and  _68
REMARK   26  A    between atoms: _68  and  _69
REMARK   27  A    between atoms: _68  and  _71
REMARK   28  A    between atoms: _71  and  _72
REMARK   29  A    between atoms: _72  and  ZN_650
REMARK   30  A    between atoms: _74  and  _75
REMARK   31  A    between atoms: _80  and  _82
REMARK   32  A    between atoms: _82  and  _83
REMARK   33  A    between atoms: _82  and  _85
REMARK   34  A    between atoms: _85  and  _86
REMARK   35  A    between atoms: _91  and  _93
REMARK   36  A    between atoms: _93  and  _94
REMARK   37  A    between atoms: _93  and  _96
REMARK   38  A    between atoms: _98  and  _100
REMARK   39  A    between atoms: _100  and  _101
REMARK   40  A    between atoms: _100  and  _103
REMARK   41  A    between atoms: _103  and  _104
REMARK   42  A    between atoms: _109  and  _111
REMARK   43  A    between atoms: _111  and  _112
REMARK   44  A    between atoms: _111  and  _114
REMARK   45  A    between atoms: _114  and  _115
REMARK   46  A    between atoms: _115  and  _116
REMARK   47  A    between atoms: _116  and  _117
REMARK   48  A    between atoms: _126  and  _128
REMARK   49  A    between atoms: _128  and  _129
REMARK   50  A    between atoms: _128  and  _131
REMARK   51  A    between atoms: _131  and  _132
REMARK   52  A    between atoms: _137  and  _139
REMARK   53  A    between atoms: _139  and  _140
REMARK   54  A    between atoms: _139  and  _142
REMARK   55  A    between atoms: _142  and  _143
REMARK   56  A    between atoms: _143  and  _144
REMARK   57  A    between atoms: _147  and  _149
REMARK   58  A    between atoms: _149  and  _150
REMARK   59  A    between atoms: _149  and  _152
REMARK   60  A    between atoms: _152  and  _153
REMARK   61  A    between atoms: _155  and  _157
REMARK   62  A    between atoms: _157  and  _158
REMARK   63  A    between atoms: _157  and  _160
REMARK   64  A    between atoms: _160  and  _161
REMARK   65  A    between atoms: _164  and  _166
REMARK   66  A    between atoms: _166  and  _167
REMARK   67  A    between atoms: _166  and  _169
REMARK   68  A    between atoms: _169  and  _170
REMARK   69  A    between atoms: _175  and  _177
REMARK   70  A    between atoms: _177  and  _178
REMARK   71  A    between atoms: _180  and  _182
REMARK   72  A    between atoms: _182  and  _183
REMARK   73  A    between atoms: _182  and  _185
REMARK   74  A    between atoms: _185  and  _186
REMARK   75  A    between atoms: _189  and  _191
REMARK   76  A    between atoms: _191  and  _192
REMARK   77  A    between atoms: _191  and  _194
REMARK   78  A    between atoms: _194  and  _195
REMARK   79  A    between atoms: _195  and  _196
REMARK   80  A    between atoms: _198  and  _200
REMARK   81  A    between atoms: _200  and  _201
REMARK   82  A    between atoms: _200  and  _203
REMARK   83  A    between atoms: _203  and  _204
REMARK   84  A    between atoms: _204  and  _205
REMARK   85  A    between atoms: _205  and  _206
REMARK   86  A    between atoms: _215  and  _217
REMARK   87  A    between atoms: _217  and  _218
REMARK   88  A    between atoms: _217  and  _220
REMARK   89  A    between atoms: _223  and  _225
REMARK   90  A    between atoms: _225  and  _226
REMARK   91  A    between atoms: _225  and  _228
REMARK   92  A    between atoms: _228  and  _229
REMARK   93  A    between atoms: _229  and  _230
REMARK   94  A    between atoms: _230  and  _231
REMARK   95  A    between atoms: _240  and  _242
REMARK   96  A    between atoms: _242  and  _243
REMARK   97  A    between atoms: _245  and  _247
REMARK   98  A    between atoms: _247  and  _248
REMARK   99  A    between atoms: _247  and  _250
REMARK  100  A    between atoms: _250  and  _251
REMARK  101  A    between atoms: _257  and  _259
REMARK  102  A    between atoms: _259  and  _260
REMARK  103  A    between atoms: _259  and  _262
REMARK  104  A    between atoms: _262  and  _263
REMARK  105  A    between atoms: _266  and  _268
REMARK  106  A    between atoms: _268  and  _269
REMARK  107  A    between atoms: _268  and  _271
REMARK  108  A    between atoms: _271  and  _272
REMARK  109  A    between atoms: _272  and  _273
REMARK  110  A    between atoms: _278  and  _280
REMARK  111  A    between atoms: _280  and  _281
REMARK  112  A    between atoms: _280  and  _283
REMARK  113  A    between atoms: _283  and  _284
REMARK  114  A    between atoms: _287  and  _289
REMARK  115  A    between atoms: _289  and  _290
REMARK  116  A    between atoms: _289  and  _292
REMARK  117  A    between atoms: _292  and  _293
REMARK  118  A    between atoms: _296  and  _298
REMARK  119  A    between atoms: _298  and  _299
REMARK  120  A    between atoms: _302  and  _304
REMARK  121  A    between atoms: _304  and  _305
REMARK  122  A    between atoms: _304  and  _307
REMARK  123  A    between atoms: _307  and  _308
REMARK  124  A    between atoms: _312  and  ZN_650
REMARK  125  A    between atoms: _313  and  _315
REMARK  126  A    between atoms: _315  and  _316
REMARK  127  A    between atoms: _315  and  _318
REMARK  128  A    between atoms: _318  and  _319
REMARK  129  A    between atoms: _322  and  _324
REMARK  130  A    between atoms: _324  and  _325
REMARK  131  A    between atoms: _324  and  _327
REMARK  132  A    between atoms: _327  and  _328
REMARK  133  A    between atoms: _330  and  _332
REMARK  134  A    between atoms: _332  and  _333
REMARK  135  A    between atoms: _332  and  _335
REMARK  136  A    between atoms: _335  and  _336
REMARK  137  A    between atoms: _336  and  _337
REMARK  138  A    between atoms: _340  and  _342
REMARK  139  A    between atoms: _342  and  _343
REMARK  140  A    between atoms: _345  and  _347
REMARK  141  A    between atoms: _347  and  _348
REMARK  142  A    between atoms: _351  and  _353
REMARK  143  A    between atoms: _353  and  _354
REMARK  144  A    between atoms: _353  and  _356
REMARK  145  A    between atoms: _356  and  _357
REMARK  146  A    between atoms: _363  and  _365
REMARK  147  A    between atoms: _365  and  _366
REMARK  148  A    between atoms: _365  and  _368
REMARK  149  A    between atoms: _368  and  _369
REMARK  150  A    between atoms: _374  and  _375
REMARK  151  A    between atoms: _377  and  _379
REMARK  152  A    between atoms: _379  and  _380
REMARK  153  A    between atoms: _379  and  _382
REMARK  154  A    between atoms: _382  and  _383
REMARK  155  A    between atoms: _383  and  _384
REMARK  156  A    between atoms: _384  and  _385
REMARK  157  A    between atoms: _385  and  _386
REMARK  158  A    between atoms: _390  and  _392
REMARK  159  A    between atoms: _392  and  _393
REMARK  160  A    between atoms: _392  and  _395
REMARK  161  A    between atoms: _395  and  _396
REMARK  162  A    between atoms: _399  and  _401
REMARK  163  A    between atoms: _401  and  _402
REMARK  164  A    between atoms: _401  and  _404
REMARK  165  A    between atoms: _404  and  _405
REMARK  166  A    between atoms: _405  and  _406
REMARK  167  A    between atoms: _409  and  _411
REMARK  168  A    between atoms: _411  and  _412
REMARK  169  A    between atoms: _411  and  _414
REMARK  170  A    between atoms: _414  and  _415
REMARK  171  A    between atoms: _425  and  _427
REMARK  172  A    between atoms: _427  and  _428
REMARK  173  A    between atoms: _427  and  _430
REMARK  174  A    between atoms: _430  and  _431
REMARK  175  A    between atoms: _431  and  _432
REMARK  176  A    between atoms: _437  and  _439
REMARK  177  A    between atoms: _439  and  _440
REMARK  178  A    between atoms: _439  and  _442
REMARK  179  A    between atoms: _444  and  _446
REMARK  180  A    between atoms: _446  and  _447
REMARK  181  A    between atoms: _449  and  _451
REMARK  182  A    between atoms: _451  and  _452
REMARK  183  A    between atoms: _451  and  _454
REMARK  184  A    between atoms: _454  and  _455
REMARK  185  A    between atoms: _458  and  _460
REMARK  186  A    between atoms: _460  and  _461
REMARK  187  A    between atoms: _460  and  _463
REMARK  188  A    between atoms: _466  and  _468
REMARK  189  A    between atoms: _468  and  _469
REMARK  190  A    between atoms: _468  and  _471
REMARK  191  A    between atoms: _471  and  _472
REMARK  192  A    between atoms: _472  and  _473
REMARK  193  A    between atoms: _478  and  _480
REMARK  194  A    between atoms: _480  and  _481
REMARK  195  A    between atoms: _480  and  _483
REMARK  196  A    between atoms: _483  and  _484
REMARK  197  A    between atoms: _487  and  _489
REMARK  198  A    between atoms: _489  and  _490
REMARK  199  A    between atoms: _489  and  _492
REMARK  200  A    between atoms: _492  and  _493
REMARK  201  A    between atoms: _496  and  _498
REMARK  202  A    between atoms: _498  and  _499
REMARK  203  A    between atoms: _498  and  _501
REMARK  204  A    between atoms: _501  and  _502
REMARK  205  A    between atoms: _502  and  _503
REMARK  206  A    between atoms: _505  and  _507
REMARK  207  A    between atoms: _507  and  _508
REMARK  208  A    between atoms: _507  and  _510
REMARK  209  A    between atoms: _510  and  _511
REMARK  210  A    between atoms: _514  and  _516
REMARK  211  A    between atoms: _516  and  _517
REMARK  212  A    between atoms: _516  and  _519
REMARK  213  A    between atoms: _519  and  _520
REMARK  214  A    between atoms: _521  and  ZN_650
REMARK  215  A    between atoms: _525  and  _527
REMARK  216  A    between atoms: _527  and  _528
REMARK  217  A    between atoms: _527  and  _530
REMARK  218  A    between atoms: _530  and  _531
REMARK  219  A    between atoms: _531  and  _532
REMARK  220  A    between atoms: _532  and  _533
REMARK  221  A    between atoms: _542  and  _544
REMARK  222  A    between atoms: _544  and  _545
REMARK  223  A    between atoms: _548  and  _550
REMARK  224  A    between atoms: _550  and  _551
REMARK  225  A    between atoms: _550  and  _553
REMARK  226  A    between atoms: _553  and  _554
REMARK  227  A    between atoms: _557  and  _559
REMARK  228  A    between atoms: _559  and  _560
REMARK  229  A    between atoms: _559  and  _562
REMARK  230  A    between atoms: _562  and  _563
REMARK  231  A    between atoms: _566  and  _568
REMARK  232  A    between atoms: _568  and  _569
REMARK  233  A    between atoms: _571  and  _573
REMARK  234  A    between atoms: _573  and  _574
REMARK  235  A    between atoms: _573  and  _576
REMARK  236  A    between atoms: _576  and  _577
REMARK  237  A    between atoms: _579  and  _581
REMARK  238  A    between atoms: _581  and  _582
REMARK  239  A    between atoms: _581  and  _584
REMARK  240  A    between atoms: _584  and  _585
REMARK  241  A    between atoms: _585  and  _586
REMARK  242  A    between atoms: _588  and  _590
REMARK  243  A    between atoms: _590  and  _591
REMARK  244  A    between atoms: _590  and  _593
REMARK  245  A    between atoms: _593  and  _594
REMARK  246  A    between atoms: _594  and  _595
REMARK  247  A    between atoms: _598  and  _600
REMARK  248  A    between atoms: _600  and  _601
REMARK  249  A    between atoms: _600  and  _603
REMARK  250  A    between atoms: _603  and  _604
REMARK  251  A    between atoms: _604  and  _605
REMARK  252  A    between atoms: _605  and  _606
REMARK  253  A    between atoms: _615  and  _617
REMARK  254  A    between atoms: _617  and  _618
REMARK  255  A    between atoms: _617  and  _620
REMARK  256  A    between atoms: _620  and  _621
REMARK  257  A    between atoms: _627  and  _629
REMARK  258  A    between atoms: _629  and  _630
REMARK  259  A    between atoms: _629  and  _632
REMARK  260  A    between atoms: _632  and  _633
REMARK  261  A    between atoms: _636  and  _638
REMARK  262  A    between atoms: _638  and  _639
REMARK  263  A    between atoms: _641  and  _643
REMARK  264  A    between atoms: _643  and  _644
REMARK  265  A    between atoms: _643  and  _646
REMARK  266  A    between atoms: _646  and  _647
REMARK                            x       y       z     vdW  Elec       q    Type
REMARK                         _______ _______ _______ _____ _____    ______ ____
ROOT
ATOM      1  CA  VAL A   1      31.647 -32.184 -16.534  0.00  0.00    +0.133 C 
ENDROOT
BRANCH   1   2
ATOM      2  CB  VAL A   1      30.849 -32.560 -17.823  0.00  0.00    +0.023 C 
ATOM      3  CG2 VAL A   1      30.009 -33.808 -17.555  0.00  0.00    +0.002 C 
ATOM      4  CG1 VAL A   1      31.788 -32.746 -19.005  0.00  0.00    +0.002 C 
ENDBRANCH   1   2
BRANCH   1   5
ATOM      5  N   VAL A   1      30.743 -32.055 -15.387  0.00  0.00    -0.239 NA
ATOM      6  H   VAL A   1      29.742 -31.813 -15.533  0.00  0.00    +0.142 HD
ENDBRANCH   1   5
BRANCH   1   7
ATOM      7  C   VAL A   1      32.463 -30.917 -16.772  0.00  0.00    +0.224 C 
ATOM      8  O   VAL A   1      31.892 -29.810 -16.679  0.00  0.00    -0.287 OA
ENDBRANCH   1   7
TORSDOF 3
REMARK  Name = ../refined-set-2016/4hws/4hws_pocket.pdb
REMARK  266 active torsions:
REMARK  status: ('A' for Active; 'I' for Inactive)
REMARK    1  A    between atoms: _1  and  _3
REMARK    2  A    between atoms: _3  and  _4
REMARK    3  A    between atoms: _6  and  _8
REMARK    4  A    between atoms: _8  and  _9
REMARK    5  A    between atoms: _8  and  _11
REMARK    6  A    between atoms: _14  and  _16
REMARK    7  A    between atoms: _16  and  _17
REMARK    8  A    between atoms: _16  and  _19
REMARK    9  A    between atoms: _19  and  _20
REMARK   10  A    between atoms: _25  and  _27
REMARK   11  A    between atoms: _27  and  _28
REMARK   12  A    between atoms: _27  and  _30
REMARK   13  A    between atoms: _30  and  _31
REMARK   14  A    between atoms: _36  and  _37
REMARK   15  A    between atoms: _40  and  _41
REMARK   16  A    between atoms: _46  and  _48
REMARK   17  A    between atoms: _48  and  _49
REMARK   18  A    between atoms: _48  and  _51
REMARK   19  A    between atoms: _51  and  _52
REMARK   20  A    between atoms: _52  and  _53
REMARK   21  A    between atoms: _55  and  _57
REMARK   22  A    between atoms: _57  and  _58
REMARK   23  A    between atoms: _57  and  _60
REMARK   24  A    between atoms: _60  and  _61
REMARK   25  A    between atoms: _66  and  _68
REMARK   26  A    between atoms: _68  and  _69
REMARK   27  A    between atoms: _68  and  _71
REMARK   28  A    between atoms: _71  and  _72
REMARK   29  A    between atoms: _72  and  ZN_650
REMARK   30  A    between atoms: _74  and  _75
REMARK   31  A    between atoms: _80  and  _82
REMARK   32  A    between atoms: _82  and  _83
REMARK   33  A    between atoms: _82  and  _85
REMARK   34  A    between atoms: _85  and  _86
REMARK   35  A    between atoms: _91  and  _93
REMARK   36  A    between atoms: _93  and  _94
REMARK   37  A    between atoms: _93  and  _96
REMARK   38  A    between atoms: _98  and  _100
REMARK   39  A    between atoms: _100  and  _101
REMARK   40  A    between atoms: _100  and  _103
REMARK   41  A    between atoms: _103  and  _104
REMARK   42  A    between atoms: _109  and  _111
REMARK   43  A    between atoms: _111  and  _112
REMARK   44  A    between atoms: _111  and  _114
REMARK   45  A    between atoms: _114  and  _115
REMARK   46  A    between atoms: _115  and  _116
REMARK   47  A    between atoms: _116  and  _117
REMARK   48  A    between atoms: _126  and  _128
REMARK   49  A    between atoms: _128  and  _129
REMARK   50  A    between atoms: _128  and  _131
REMARK   51  A    between atoms: _131  and  _132
REMARK   52  A    between atoms: _137  and  _139
REMARK   53  A    between atoms: _139  and  _140
REMARK   54  A    between atoms: _139  and  _142
REMARK   55  A    between atoms: _142  and  _143
REMARK   56  A    between atoms: _143  and  _144
REMARK   57  A    between atoms: _147  and  _149
REMARK   58  A    between atoms: _149  and  _150
REMARK   59  A    between atoms: _149  and  _152
REMARK   60  A    between atoms: _152  and  _153
REMARK   61  A    between atoms: _155  and  _157
REMARK   62  A    between atoms: _157  and  _158
REMARK   63  A    between atoms: _157  and  _160
REMARK   64  A    between atoms: _160  and  _161
REMARK   65  A    between atoms: _164  and  _166
REMARK   66  A    between atoms: _166  and  _167
REMARK   67  A    between atoms: _166  and  _169
REMARK   68  A    between atoms: _169  and  _170
REMARK   69  A    between atoms: _175  and  _177
REMARK   70  A    between atoms: _177  and  _178
REMARK   71  A    between atoms: _180  and  _182
REMARK   72  A    between atoms: _182  and  _183
REMARK   73  A    between atoms: _182  and  _185
REMARK   74  A    between atoms: _185  and  _186
REMARK   75  A    between atoms: _189  and  _191
REMARK   76  A    between atoms: _191  and  _192
REMARK   77  A    between atoms: _191  and  _194
REMARK   78  A    between atoms: _194  and  _195
REMARK   79  A    between atoms: _195  and  _196
REMARK   80  A    between atoms: _198  and  _200
REMARK   81  A    between atoms: _200  and  _201
REMARK   82  A    between atoms: _200  and  _203
REMARK   83  A    between atoms: _203  and  _204
REMARK   84  A    between atoms: _204  and  _205
REMARK   85  A    between atoms: _205  and  _206
REMARK   86  A    between atoms: _215  and  _217
REMARK   87  A    between atoms: _217  and  _218
REMARK   88  A    between atoms: _217  and  _220
REMARK   89  A    between atoms: _223  and  _225
REMARK   90  A    between atoms: _225  and  _226
REMARK   91  A    between atoms: _225  and  _228
REMARK   92  A    between atoms: _228  and  _229
REMARK   93  A    between atoms: _229  and  _230
REMARK   94  A    between atoms: _230  and  _231
REMARK   95  A    between atoms: _240  and  _242
REMARK   96  A    between atoms: _242  and  _243
REMARK   97  A    between atoms: _245  and  _247
REMARK   98  A    between atoms: _247  and  _248
REMARK   99  A    between atoms: _247  and  _250
REMARK  100  A    between atoms: _250  and  _251
REMARK  101  A    between atoms: _257  and  _259
REMARK  102  A    between atoms: _259  and  _260
REMARK  103  A    between atoms: _259  and  _262
REMARK  104  A    between atoms: _262  and  _263
REMARK  105  A    between atoms: _266  and  _268
REMARK  106  A    between atoms: _268  and  _269
REMARK  107  A    between atoms: _268  and  _271
REMARK  108  A    between atoms: _271  and  _272
REMARK  109  A    between atoms: _272  and  _273
REMARK  110  A    between atoms: _278  and  _280
REMARK  111  A    between atoms: _280  and  _281
REMARK  112  A    between atoms: _280  and  _283
REMARK  113  A    between atoms: _283  and  _284
REMARK  114  A    between atoms: _287  and  _289
REMARK  115  A    between atoms: _289  and  _290
REMARK  116  A    between atoms: _289  and  _292
REMARK  117  A    between atoms: _292  and  _293
REMARK  118  A    between atoms: _296  and  _298
REMARK  119  A    between atoms: _298  and  _299
REMARK  120  A    between atoms: _302  and  _304
REMARK  121  A    between atoms: _304  and  _305
REMARK  122  A    between atoms: _304  and  _307
REMARK  123  A    between atoms: _307  and  _308
REMARK  124  A    between atoms: _312  and  ZN_650
REMARK  125  A    between atoms: _313  and  _315
REMARK  126  A    between atoms: _315  and  _316
REMARK  127  A    between atoms: _315  and  _318
REMARK  128  A    between atoms: _318  and  _319
REMARK  129  A    between atoms: _322  and  _324
REMARK  130  A    between atoms: _324  and  _325
REMARK  131  A    between atoms: _324  and  _327
REMARK  132  A    between atoms: _327  and  _328
REMARK  133  A    between atoms: _330  and  _332
REMARK  134  A    between atoms: _332  and  _333
REMARK  135  A    between atoms: _332  and  _335
REMARK  136  A    between atoms: _335  and  _336
REMARK  137  A    between atoms: _336  and  _337
REMARK  138  A    between atoms: _340  and  _342
REMARK  139  A    between atoms: _342  and  _343
REMARK  140  A    between atoms: _345  and  _347
REMARK  141  A    between atoms: _347  and  _348
REMARK  142  A    between atoms: _351  and  _353
REMARK  143  A    between atoms: _353  and  _354
REMARK  144  A    between atoms: _353  and  _356
REMARK  145  A    between atoms: _356  and  _357
REMARK  146  A    between atoms: _363  and  _365
REMARK  147  A    between atoms: _365  and  _366
REMARK  148  A    between atoms: _365  and  _368
REMARK  149  A    between atoms: _368  and  _369
REMARK  150  A    between atoms: _374  and  _375
REMARK  151  A    between atoms: _377  and  _379
REMARK  152  A    between atoms: _379  and  _380
REMARK  153  A    between atoms: _379  and  _382
REMARK  154  A    between atoms: _382  and  _383
REMARK  155  A    between atoms: _383  and  _384
REMARK  156  A    between atoms: _384  and  _385
REMARK  157  A    between atoms: _385  and  _386
REMARK  158  A    between atoms: _390  and  _392
REMARK  159  A    between atoms: _392  and  _393
REMARK  160  A    between atoms: _392  and  _395
REMARK  161  A    between atoms: _395  and  _396
REMARK  162  A    between atoms: _399  and  _401
REMARK  163  A    between atoms: _401  and  _402
REMARK  164  A    between atoms: _401  and  _404
REMARK  165  A    between atoms: _404  and  _405
REMARK  166  A    between atoms: _405  and  _406
REMARK  167  A    between atoms: _409  and  _411
REMARK  168  A    between atoms: _411  and  _412
REMARK  169  A    between atoms: _411  and  _414
REMARK  170  A    between atoms: _414  and  _415
REMARK  171  A    between atoms: _425  and  _427
REMARK  172  A    between atoms: _427  and  _428
REMARK  173  A    between atoms: _427  and  _430
REMARK  174  A    between atoms: _430  and  _431
REMARK  175  A    between atoms: _431  and  _432
REMARK  176  A    between atoms: _437  and  _439
REMARK  177  A    between atoms: _439  and  _440
REMARK  178  A    between atoms: _439  and  _442
REMARK  179  A    between atoms: _444  and  _446
REMARK  180  A    between atoms: _446  and  _447
REMARK  181  A    between atoms: _449  and  _451
REMARK  182  A    between atoms: _451  and  _452
REMARK  183  A    between atoms: _451  and  _454
REMARK  184  A    between atoms: _454  and  _455
REMARK  185  A    between atoms: _458  and  _460
REMARK  186  A    between atoms: _460  and  _461
REMARK  187  A    between atoms: _460  and  _463
REMARK  188  A    between atoms: _466  and  _468
REMARK  189  A    between atoms: _468  and  _469
REMARK  190  A    between atoms: _468  and  _471
REMARK  191  A    between atoms: _471  and  _472
REMARK  192  A    between atoms: _472  and  _473
REMARK  193  A    between atoms: _478  and  _480
REMARK  194  A    between atoms: _480  and  _481
REMARK  195  A    between atoms: _480  and  _483
REMARK  196  A    between atoms: _483  and  _484
REMARK  197  A    between atoms: _487  and  _489
REMARK  198  A    between atoms: _489  and  _490
REMARK  199  A    between atoms: _489  and  _492
REMARK  200  A    between atoms: _492  and  _493
REMARK  201  A    between atoms: _496  and  _498
REMARK  202  A    between atoms: _498  and  _499
REMARK  203  A    between atoms: _498  and  _501
REMARK  204  A    between atoms: _501  and  _502
REMARK  205  A    between atoms: _502  and  _503
REMARK  206  A    between atoms: _505  and  _507
REMARK  207  A    between atoms: _507  and  _508
REMARK  208  A    between atoms: _507  and  _510
REMARK  209  A    between atoms: _510  and  _511
REMARK  210  A    between atoms: _514  and  _516
REMARK  211  A    between atoms: _516  and  _517
REMARK  212  A    between atoms: _516  and  _519
REMARK  213  A    between atoms: _519  and  _520
REMARK  214  A    between atoms: _521  and  ZN_650
REMARK  215  A    between atoms: _525  and  _527
REMARK  216  A    between atoms: _527  and  _528
REMARK  217  A    between atoms: _527  and  _530
REMARK  218  A    between atoms: _530  and  _531
REMARK  219  A    between atoms: _531  and  _532
REMARK  220  A    between atoms: _532  and  _533
REMARK  221  A    between atoms: _542  and  _544
REMARK  222  A    between atoms: _544  and  _545
REMARK  223  A    between atoms: _548  and  _550
REMARK  224  A    between atoms: _550  and  _551
REMARK  225  A    between atoms: _550  and  _553
REMARK  226  A    between atoms: _553  and  _554
REMARK  227  A    between atoms: _557  and  _559
REMARK  228  A    between atoms: _559  and  _560
REMARK  229  A    between atoms: _559  and  _562
REMARK  230  A    between atoms: _562  and  _563
REMARK  231  A    between atoms: _566  and  _568
REMARK  232  A    between atoms: _568  and  _569
REMARK  233  A    between atoms: _571  and  _573
REMARK  234  A    between atoms: _573  and  _574
REMARK  235  A    between atoms: _573  and  _576
REMARK  236  A    between atoms: _576  and  _577
REMARK  237  A    between atoms: _579  and  _581
REMARK  238  A    between atoms: _581  and  _582
REMARK  239  A    between atoms: _581  and  _584
REMARK  240  A    between atoms: _584  and  _585
REMARK  241  A    between atoms: _585  and  _586
REMARK  242  A    between atoms: _588  and  _590
REMARK  243  A    between atoms: _590  and  _591
REMARK  244  A    between atoms: _590  and  _593
REMARK  245  A    between atoms: _593  and  _594
REMARK  246  A    between atoms: _594  and  _595
REMARK  247  A    between atoms: _598  and  _600
REMARK  248  A    between atoms: _600  and  _601
REMARK  249  A    between atoms: _600  and  _603
REMARK  250  A    between atoms: _603  and  _604
REMARK  251  A    between atoms: _604  and  _605
REMARK  252  A    between atoms: _605  and  _606
REMARK  253  A    between atoms: _615  and  _617
REMARK  254  A    between atoms: _617  and  _618
REMARK  255  A    between atoms: _617  and  _620
REMARK  256  A    between atoms: _620  and  _621
REMARK  257  A    between atoms: _627  and  _629
REMARK  258  A    between atoms: _629  and  _630
REMARK  259  A    between atoms: _629  and  _632
REMARK  260  A    between atoms: _632  and  _633
REMARK  261  A    between atoms: _636  and  _638
REMARK  262  A    between atoms: _638  and  _639
REMARK  263  A    between atoms: _641  and  _643
REMARK  264  A    between atoms: _643  and  _644
REMARK  265  A    between atoms: _643  and  _646
REMARK  266  A    between atoms: _646  and  _647
REMARK                            x       y       z     vdW  Elec       q    Type
REMARK                         _______ _______ _______ _____ _____    ______ ____
ROOT
ATOM      1  CB  HIS A   1       9.666 -32.071  -6.298  0.00  0.00    +0.072 C 
ENDROOT
BRANCH   1   2
ATOM      2  CG  HIS A   1       9.603 -32.157  -7.772  0.00  0.00    +0.082 A 
ATOM      3  ND1 HIS A   1       8.688 -31.482  -8.489  0.00  0.00    -0.227 NA
ATOM      4  CE1 HIS A   1       8.881 -31.744  -9.825  0.00  0.00    +0.199 A 
ATOM      5  NE2 HIS A   1       9.920 -32.598  -9.932  0.00  0.00    -0.221 NA
ATOM      6  CD2 HIS A   1      10.398 -32.864  -8.683  0.00  0.00    +0.115 A 
ENDBRANCH   1   2
BRANCH   1   7
ATOM      7  CA  HIS A   1       8.856 -33.142  -5.608  0.00  0.00    +0.139 C 
BRANCH   7   8
ATOM      8  N   HIS A   1       7.417 -32.792  -5.505  0.00  0.00    -0.239 NA
ATOM      9  H   HIS A   1       7.090 -31.870  -5.856  0.00  0.00    +0.142 HD
ENDBRANCH   7   8
BRANCH   7  10
ATOM     10  C   HIS A   1       9.546 -33.400  -4.310  0.00  0.00    +0.224 C 
ATOM     11  O   HIS A   1      10.361 -34.327  -4.219  0.00  0.00    -0.287 OA
ENDBRANCH   7  10
ENDBRANCH   1   7
TORSDOF 4
REMARK  Name = ../refined-set-2016/4hws/4hws_pocket.pdb
REMARK  266 active torsions:
REMARK  status: ('A' for Active; 'I' for Inactive)
REMARK    1  A    between atoms: _1  and  _3
REMARK    2  A    between atoms: _3  and  _4
REMARK    3  A    between atoms: _6  and  _8
REMARK    4  A    between atoms: _8  and  _9
REMARK    5  A    between atoms: _8  and  _11
REMARK    6  A    between atoms: _14  and  _16
REMARK    7  A    between atoms: _16  and  _17
REMARK    8  A    between atoms: _16  and  _19
REMARK    9  A    between atoms: _19  and  _20
REMARK   10  A    between atoms: _25  and  _27
REMARK   11  A    between atoms: _27  and  _28
REMARK   12  A    between atoms: _27  and  _30
REMARK   13  A    between atoms: _30  and  _31
REMARK   14  A    between atoms: _36  and  _37
REMARK   15  A    between atoms: _40  and  _41
REMARK   16  A    between atoms: _46  and  _48
REMARK   17  A    between atoms: _48  and  _49
REMARK   18  A    between atoms: _48  and  _51
REMARK   19  A    between atoms: _51  and  _52
REMARK   20  A    between atoms: _52  and  _53
REMARK   21  A    between atoms: _55  and  _57
REMARK   22  A    between atoms: _57  and  _58
REMARK   23  A    between atoms: _57  and  _60
REMARK   24  A    between atoms: _60  and  _61
REMARK   25  A    between atoms: _66  and  _68
REMARK   26  A    between atoms: _68  and  _69
REMARK   27  A    between atoms: _68  and  _71
REMARK   28  A    between atoms: _71  and  _72
REMARK   29  A    between atoms: _72  and  ZN_650
REMARK   30  A    between atoms: _74  and  _75
REMARK   31  A    between atoms: _80  and  _82
REMARK   32  A    between atoms: _82  and  _83
REMARK   33  A    between atoms: _82  and  _85
REMARK   34  A    between atoms: _85  and  _86
REMARK   35  A    between atoms: _91  and  _93
REMARK   36  A    between atoms: _93  and  _94
REMARK   37  A    between atoms: _93  and  _96
REMARK   38  A    between atoms: _98  and  _100
REMARK   39  A    between atoms: _100  and  _101
REMARK   40  A    between atoms: _100  and  _103
REMARK   41  A    between atoms: _103  and  _104
REMARK   42  A    between atoms: _109  and  _111
REMARK   43  A    between atoms: _111  and  _112
REMARK   44  A    between atoms: _111  and  _114
REMARK   45  A    between atoms: _114  and  _115
REMARK   46  A    between atoms: _115  and  _116
REMARK   47  A    between atoms: _116  and  _117
REMARK   48  A    between atoms: _126  and  _128
REMARK   49  A    between atoms: _128  and  _129
REMARK   50  A    between atoms: _128  and  _131
REMARK   51  A    between atoms: _131  and  _132
REMARK   52  A    between atoms: _137  and  _139
REMARK   53  A    between atoms: _139  and  _140
REMARK   54  A    between atoms: _139  and  _142
REMARK   55  A    between atoms: _142  and  _143
REMARK   56  A    between atoms: _143  and  _144
REMARK   57  A    between atoms: _147  and  _149
REMARK   58  A    between atoms: _149  and  _150
REMARK   59  A    between atoms: _149  and  _152
REMARK   60  A    between atoms: _152  and  _153
REMARK   61  A    between atoms: _155  and  _157
REMARK   62  A    between atoms: _157  and  _158
REMARK   63  A    between atoms: _157  and  _160
REMARK   64  A    between atoms: _160  and  _161
REMARK   65  A    between atoms: _164  and  _166
REMARK   66  A    between atoms: _166  and  _167
REMARK   67  A    between atoms: _166  and  _169
REMARK   68  A    between atoms: _169  and  _170
REMARK   69  A    between atoms: _175  and  _177
REMARK   70  A    between atoms: _177  and  _178
REMARK   71  A    between atoms: _180  and  _182
REMARK   72  A    between atoms: _182  and  _183
REMARK   73  A    between atoms: _182  and  _185
REMARK   74  A    between atoms: _185  and  _186
REMARK   75  A    between atoms: _189  and  _191
REMARK   76  A    between atoms: _191  and  _192
REMARK   77  A    between atoms: _191  and  _194
REMARK   78  A    between atoms: _194  and  _195
REMARK   79  A    between atoms: _195  and  _196
REMARK   80  A    between atoms: _198  and  _200
REMARK   81  A    between atoms: _200  and  _201
REMARK   82  A    between atoms: _200  and  _203
REMARK   83  A    between atoms: _203  and  _204
REMARK   84  A    between atoms: _204  and  _205
REMARK   85  A    between atoms: _205  and  _206
REMARK   86  A    between atoms: _215  and  _217
REMARK   87  A    between atoms: _217  and  _218
REMARK   88  A    between atoms: _217  and  _220
REMARK   89  A    between atoms: _223  and  _225
REMARK   90  A    between atoms: _225  and  _226
REMARK   91  A    between atoms: _225  and  _228
REMARK   92  A    between atoms: _228  and  _229
REMARK   93  A    between atoms: _229  and  _230
REMARK   94  A    between atoms: _230  and  _231
REMARK   95  A    between atoms: _240  and  _242
REMARK   96  A    between atoms: _242  and  _243
REMARK   97  A    between atoms: _245  and  _247
REMARK   98  A    between atoms: _247  and  _248
REMARK   99  A    between atoms: _247  and  _250
REMARK  100  A    between atoms: _250  and  _251
REMARK  101  A    between atoms: _257  and  _259
REMARK  102  A    between atoms: _259  and  _260
REMARK  103  A    between atoms: _259  and  _262
REMARK  104  A    between atoms: _262  and  _263
REMARK  105  A    between atoms: _266  and  _268
REMARK  106  A    between atoms: _268  and  _269
REMARK  107  A    between atoms: _268  and  _271
REMARK  108  A    between atoms: _271  and  _272
REMARK  109  A    between atoms: _272  and  _273
REMARK  110  A    between atoms: _278  and  _280
REMARK  111  A    between atoms: _280  and  _281
REMARK  112  A    between atoms: _280  and  _283
REMARK  113  A    between atoms: _283  and  _284
REMARK  114  A    between atoms: _287  and  _289
REMARK  115  A    between atoms: _289  and  _290
REMARK  116  A    between atoms: _289  and  _292
REMARK  117  A    between atoms: _292  and  _293
REMARK  118  A    between atoms: _296  and  _298
REMARK  119  A    between atoms: _298  and  _299
REMARK  120  A    between atoms: _302  and  _304
REMARK  121  A    between atoms: _304  and  _305
REMARK  122  A    between atoms: _304  and  _307
REMARK  123  A    between atoms: _307  and  _308
REMARK  124  A    between atoms: _312  and  ZN_650
REMARK  125  A    between atoms: _313  and  _315
REMARK  126  A    between atoms: _315  and  _316
REMARK  127  A    between atoms: _315  and  _318
REMARK  128  A    between atoms: _318  and  _319
REMARK  129  A    between atoms: _322  and  _324
REMARK  130  A    between atoms: _324  and  _325
REMARK  131  A    between atoms: _324  and  _327
REMARK  132  A    between atoms: _327  and  _328
REMARK  133  A    between atoms: _330  and  _332
REMARK  134  A    between atoms: _332  and  _333
REMARK  135  A    between atoms: _332  and  _335
REMARK  136  A    between atoms: _335  and  _336
REMARK  137  A    between atoms: _336  and  _337
REMARK  138  A    between atoms: _340  and  _342
REMARK  139  A    between atoms: _342  and  _343
REMARK  140  A    between atoms: _345  and  _347
REMARK  141  A    between atoms: _347  and  _348
REMARK  142  A    between atoms: _351  and  _353
REMARK  143  A    between atoms: _353  and  _354
REMARK  144  A    between atoms: _353  and  _356
REMARK  145  A    between atoms: _356  and  _357
REMARK  146  A    between atoms: _363  and  _365
REMARK  147  A    between atoms: _365  and  _366
REMARK  148  A    between atoms: _365  and  _368
REMARK  149  A    between atoms: _368  and  _369
REMARK  150  A    between atoms: _374  and  _375
REMARK  151  A    between atoms: _377  and  _379
REMARK  152  A    between atoms: _379  and  _380
REMARK  153  A    between atoms: _379  and  _382
REMARK  154  A    between atoms: _382  and  _383
REMARK  155  A    between atoms: _383  and  _384
REMARK  156  A    between atoms: _384  and  _385
REMARK  157  A    between atoms: _385  and  _386
REMARK  158  A    between atoms: _390  and  _392
REMARK  159  A    between atoms: _392  and  _393
REMARK  160  A    between atoms: _392  and  _395
REMARK  161  A    between atoms: _395  and  _396
REMARK  162  A    between atoms: _399  and  _401
REMARK  163  A    between atoms: _401  and  _402
REMARK  164  A    between atoms: _401  and  _404
REMARK  165  A    between atoms: _404  and  _405
REMARK  166  A    between atoms: _405  and  _406
REMARK  167  A    between atoms: _409  and  _411
REMARK  168  A    between atoms: _411  and  _412
REMARK  169  A    between atoms: _411  and  _414
REMARK  170  A    between atoms: _414  and  _415
REMARK  171  A    between atoms: _425  and  _427
REMARK  172  A    between atoms: _427  and  _428
REMARK  173  A    between atoms: _427  and  _430
REMARK  174  A    between atoms: _430  and  _431
REMARK  175  A    between atoms: _431  and  _432
REMARK  176  A    between atoms: _437  and  _439
REMARK  177  A    between atoms: _439  and  _440
REMARK  178  A    between atoms: _439  and  _442
REMARK  179  A    between atoms: _444  and  _446
REMARK  180  A    between atoms: _446  and  _447
REMARK  181  A    between atoms: _449  and  _451
REMARK  182  A    between atoms: _451  and  _452
REMARK  183  A    between atoms: _451  and  _454
REMARK  184  A    between atoms: _454  and  _455
REMARK  185  A    between atoms: _458  and  _460
REMARK  186  A    between atoms: _460  and  _461
REMARK  187  A    between atoms: _460  and  _463
REMARK  188  A    between atoms: _466  and  _468
REMARK  189  A    between atoms: _468  and  _469
REMARK  190  A    between atoms: _468  and  _471
REMARK  191  A    between atoms: _471  and  _472
REMARK  192  A    between atoms: _472  and  _473
REMARK  193  A    between atoms: _478  and  _480
REMARK  194  A    between atoms: _480  and  _481
REMARK  195  A    between atoms: _480  and  _483
REMARK  196  A    between atoms: _483  and  _484
REMARK  197  A    between atoms: _487  and  _489
REMARK  198  A    between atoms: _489  and  _490
REMARK  199  A    between atoms: _489  and  _492
REMARK  200  A    between atoms: _492  and  _493
REMARK  201  A    between atoms: _496  and  _498
REMARK  202  A    between atoms: _498  and  _499
REMARK  203  A    between atoms: _498  and  _501
REMARK  204  A    between atoms: _501  and  _502
REMARK  205  A    between atoms: _502  and  _503
REMARK  206  A    between atoms: _505  and  _507
REMARK  207  A    between atoms: _507  and  _508
REMARK  208  A    between atoms: _507  and  _510
REMARK  209  A    between atoms: _510  and  _511
REMARK  210  A    between atoms: _514  and  _516
REMARK  211  A    between atoms: _516  and  _517
REMARK  212  A    between atoms: _516  and  _519
REMARK  213  A    between atoms: _519  and  _520
REMARK  214  A    between atoms: _521  and  ZN_650
REMARK  215  A    between atoms: _525  and  _527
REMARK  216  A    between atoms: _527  and  _528
REMARK  217  A    between atoms: _527  and  _530
REMARK  218  A    between atoms: _530  and  _531
REMARK  219  A    between atoms: _531  and  _532
REMARK  220  A    between atoms: _532  and  _533
REMARK  221  A    between atoms: _542  and  _544
REMARK  222  A    between atoms: _544  and  _545
REMARK  223  A    between atoms: _548  and  _550
REMARK  224  A    between atoms: _550  and  _551
REMARK  225  A    between atoms: _550  and  _553
REMARK  226  A    between atoms: _553  and  _554
REMARK  227  A    between atoms: _557  and  _559
REMARK  228  A    between atoms: _559  and  _560
REMARK  229  A    between atoms: _559  and  _562
REMARK  230  A    between atoms: _562  and  _563
REMARK  231  A    between atoms: _566  and  _568
REMARK  232  A    between atoms: _568  and  _569
REMARK  233  A    between atoms: _571  and  _573
REMARK  234  A    between atoms: _573  and  _574
REMARK  235  A    between atoms: _573  and  _576
REMARK  236  A    between atoms: _576  and  _577
REMARK  237  A    between atoms: _579  and  _581
REMARK  238  A    between atoms: _581  and  _582
REMARK  239  A    between atoms: _581  and  _584
REMARK  240  A    between atoms: _584  and  _585
REMARK  241  A    between atoms: _585  and  _586
REMARK  242  A    between atoms: _588  and  _590
REMARK  243  A    between atoms: _590  and  _591
REMARK  244  A    between atoms: _590  and  _593
REMARK  245  A    between atoms: _593  and  _594
REMARK  246  A    between atoms: _594  and  _595
REMARK  247  A    between atoms: _598  and  _600
REMARK  248  A    between atoms: _600  and  _601
REMARK  249  A    between atoms: _600  and  _603
REMARK  250  A    between atoms: _603  and  _604
REMARK  251  A    between atoms: _604  and  _605
REMARK  252  A    between atoms: _605  and  _606
REMARK  253  A    between atoms: _615  and  _617
REMARK  254  A    between atoms: _617  and  _618
REMARK  255  A    between atoms: _617  and  _620
REMARK  256  A    between atoms: _620  and  _621
REMARK  257  A    between atoms: _627  and  _629
REMARK  258  A    between atoms: _629  and  _630
REMARK  259  A    between atoms: _629  and  _632
REMARK  260  A    between atoms: _632  and  _633
REMARK  261  A    between atoms: _636  and  _638
REMARK  262  A    between atoms: _638  and  _639
REMARK  263  A    between atoms: _641  and  _643
REMARK  264  A    between atoms: _643  and  _644
REMARK  265  A    between atoms: _643  and  _646
REMARK  266  A    between atoms: _646  and  _647
REMARK                            x       y       z     vdW  Elec       q    Type
REMARK                         _______ _______ _______ _____ _____    ______ ____
ROOT
ATOM      1  CG  TYR A   1      12.552 -36.156  -7.478  0.00  0.00    -0.020 A 
ATOM      2  CD2 TYR A   1      13.814 -35.637  -7.770  0.00  0.00    -0.001 A 
ATOM      3  CE2 TYR A   1      14.508 -36.036  -8.907  0.00  0.00    +0.036 A 
ATOM      4  CZ  TYR A   1      13.936 -36.972  -9.753  0.00  0.00    +0.134 A 
ATOM      5  CE1 TYR A   1      12.692 -37.505  -9.488  0.00  0.00    +0.036 A 
ATOM      6  CD1 TYR A   1      12.006 -37.100  -8.357  0.00  0.00    -0.001 A 
ENDROOT
BRANCH   4   7
ATOM      7  OH  TYR A   1      14.637 -37.356 -10.868  0.00  0.00    -0.506 OA
ATOM      8  HH  TYR A   1      14.802 -38.331 -10.833  0.00  0.00    +0.292 HD
ENDBRANCH   4   7
BRANCH   1   9
ATOM      9  CB  TYR A   1      11.816 -35.744  -6.220  0.00  0.00    +0.051 C 
BRANCH   9  10
ATOM     10  CA  TYR A   1      12.163 -36.643  -5.007  0.00  0.00    +0.137 C 
BRANCH  10  11
ATOM     11  N   TYR A   1      10.958 -36.959  -4.255  0.00  0.00    -0.239 NA
ATOM     12  H   TYR A   1      10.771 -36.461  -3.361  0.00  0.00    +0.142 HD
ENDBRANCH  10  11
BRANCH  10  13
ATOM     13  C   TYR A   1      13.237 -35.989  -4.128  0.00  0.00    +0.224 C 
ATOM     14  O   TYR A   1      14.240 -35.494  -4.644  0.00  0.00    -0.287 OA
ENDBRANCH  10  13
ENDBRANCH   9  10
ENDBRANCH   1   9
TORSDOF 5
REMARK  Name = ../refined-set-2016/4hws/4hws_pocket.pdb
REMARK  266 active torsions:
REMARK  status: ('A' for Active; 'I' for Inactive)
REMARK    1  A    between atoms: _1  and  _3
REMARK    2  A    between atoms: _3  and  _4
REMARK    3  A    between atoms: _6  and  _8
REMARK    4  A    between atoms: _8  and  _9
REMARK    5  A    between atoms: _8  and  _11
REMARK    6  A    between atoms: _14  and  _16
REMARK    7  A    between atoms: _16  and  _17
REMARK    8  A    between atoms: _16  and  _19
REMARK    9  A    between atoms: _19  and  _20
REMARK   10  A    between atoms: _25  and  _27
REMARK   11  A    between atoms: _27  and  _28
REMARK   12  A    between atoms: _27  and  _30
REMARK   13  A    between atoms: _30  and  _31
REMARK   14  A    between atoms: _36  and  _37
REMARK   15  A    between atoms: _40  and  _41
REMARK   16  A    between atoms: _46  and  _48
REMARK   17  A    between atoms: _48  and  _49
REMARK   18  A    between atoms: _48  and  _51
REMARK   19  A    between atoms: _51  and  _52
REMARK   20  A    between atoms: _52  and  _53
REMARK   21  A    between atoms: _55  and  _57
REMARK   22  A    between atoms: _57  and  _58
REMARK   23  A    between atoms: _57  and  _60
REMARK   24  A    between atoms: _60  and  _61
REMARK   25  A    between atoms: _66  and  _68
REMARK   26  A    between atoms: _68  and  _69
REMARK   27  A    between atoms: _68  and  _71
REMARK   28  A    between atoms: _71  and  _72
REMARK   29  A    between atoms: _72  and  ZN_650
REMARK   30  A    between atoms: _74  and  _75
REMARK   31  A    between atoms: _80  and  _82
REMARK   32  A    between atoms: _82  and  _83
REMARK   33  A    between atoms: _82  and  _85
REMARK   34  A    between atoms: _85  and  _86
REMARK   35  A    between atoms: _91  and  _93
REMARK   36  A    between atoms: _93  and  _94
REMARK   37  A    between atoms: _93  and  _96
REMARK   38  A    between atoms: _98  and  _100
REMARK   39  A    between atoms: _100  and  _101
REMARK   40  A    between atoms: _100  and  _103
REMARK   41  A    between atoms: _103  and  _104
REMARK   42  A    between atoms: _109  and  _111
REMARK   43  A    between atoms: _111  and  _112
REMARK   44  A    between atoms: _111  and  _114
REMARK   45  A    between atoms: _114  and  _115
REMARK   46  A    between atoms: _115  and  _116
REMARK   47  A    between atoms: _116  and  _117
REMARK   48  A    between atoms: _126  and  _128
REMARK   49  A    between atoms: _128  and  _129
REMARK   50  A    between atoms: _128  and  _131
REMARK   51  A    between atoms: _131  and  _132
REMARK   52  A    between atoms: _137  and  _139
REMARK   53  A    between atoms: _139  and  _140
REMARK   54  A    between atoms: _139  and  _142
REMARK   55  A    between atoms: _142  and  _143
REMARK   56  A    between atoms: _143  and  _144
REMARK   57  A    between atoms: _147  and  _149
REMARK   58  A    between atoms: _149  and  _150
REMARK   59  A    between atoms: _149  and  _152
REMARK   60  A    between atoms: _152  and  _153
REMARK   61  A    between atoms: _155  and  _157
REMARK   62  A    between atoms: _157  and  _158
REMARK   63  A    between atoms: _157  and  _160
REMARK   64  A    between atoms: _160  and  _161
REMARK   65  A    between atoms: _164  and  _166
REMARK   66  A    between atoms: _166  and  _167
REMARK   67  A    between atoms: _166  and  _169
REMARK   68  A    between atoms: _169  and  _170
REMARK   69  A    between atoms: _175  and  _177
REMARK   70  A    between atoms: _177  and  _178
REMARK   71  A    between atoms: _180  and  _182
REMARK   72  A    between atoms: _182  and  _183
REMARK   73  A    between atoms: _182  and  _185
REMARK   74  A    between atoms: _185  and  _186
REMARK   75  A    between atoms: _189  and  _191
REMARK   76  A    between atoms: _191  and  _192
REMARK   77  A    between atoms: _191  and  _194
REMARK   78  A    between atoms: _194  and  _195
REMARK   79  A    between atoms: _195  and  _196
REMARK   80  A    between atoms: _198  and  _200
REMARK   81  A    between atoms: _200  and  _201
REMARK   82  A    between atoms: _200  and  _203
REMARK   83  A    between atoms: _203  and  _204
REMARK   84  A    between atoms: _204  and  _205
REMARK   85  A    between atoms: _205  and  _206
REMARK   86  A    between atoms: _215  and  _217
REMARK   87  A    between atoms: _217  and  _218
REMARK   88  A    between atoms: _217  and  _220
REMARK   89  A    between atoms: _223  and  _225
REMARK   90  A    between atoms: _225  and  _226
REMARK   91  A    between atoms: _225  and  _228
REMARK   92  A    between atoms: _228  and  _229
REMARK   93  A    between atoms: _229  and  _230
REMARK   94  A    between atoms: _230  and  _231
REMARK   95  A    between atoms: _240  and  _242
REMARK   96  A    between atoms: _242  and  _243
REMARK   97  A    between atoms: _245  and  _247
REMARK   98  A    between atoms: _247  and  _248
REMARK   99  A    between atoms: _247  and  _250
REMARK  100  A    between atoms: _250  and  _251
REMARK  101  A    between atoms: _257  and  _259
REMARK  102  A    between atoms: _259  and  _260
REMARK  103  A    between atoms: _259  and  _262
REMARK  104  A    between atoms: _262  and  _263
REMARK  105  A    between atoms: _266  and  _268
REMARK  106  A    between atoms: _268  and  _269
REMARK  107  A    between atoms: _268  and  _271
REMARK  108  A    between atoms: _271  and  _272
REMARK  109  A    between atoms: _272  and  _273
REMARK  110  A    between atoms: _278  and  _280
REMARK  111  A    between atoms: _280  and  _281
REMARK  112  A    between atoms: _280  and  _283
REMARK  113  A    between atoms: _283  and  _284
REMARK  114  A    between atoms: _287  and  _289
REMARK  115  A    between atoms: _289  and  _290
REMARK  116  A    between atoms: _289  and  _292
REMARK  117  A    between atoms: _292  and  _293
REMARK  118  A    between atoms: _296  and  _298
REMARK  119  A    between atoms: _298  and  _299
REMARK  120  A    between atoms: _302  and  _304
REMARK  121  A    between atoms: _304  and  _305
REMARK  122  A    between atoms: _304  and  _307
REMARK  123  A    between atoms: _307  and  _308
REMARK  124  A    between atoms: _312  and  ZN_650
REMARK  125  A    between atoms: _313  and  _315
REMARK  126  A    between atoms: _315  and  _316
REMARK  127  A    between atoms: _315  and  _318
REMARK  128  A    between atoms: _318  and  _319
REMARK  129  A    between atoms: _322  and  _324
REMARK  130  A    between atoms: _324  and  _325
REMARK  131  A    between atoms: _324  and  _327
REMARK  132  A    between atoms: _327  and  _328
REMARK  133  A    between atoms: _330  and  _332
REMARK  134  A    between atoms: _332  and  _333
REMARK  135  A    between atoms: _332  and  _335
REMARK  136  A    between atoms: _335  and  _336
REMARK  137  A    between atoms: _336  and  _337
REMARK  138  A    between atoms: _340  and  _342
REMARK  139  A    between atoms: _342  and  _343
REMARK  140  A    between atoms: _345  and  _347
REMARK  141  A    between atoms: _347  and  _348
REMARK  142  A    between atoms: _351  and  _353
REMARK  143  A    between atoms: _353  and  _354
REMARK  144  A    between atoms: _353  and  _356
REMARK  145  A    between atoms: _356  and  _357
REMARK  146  A    between atoms: _363  and  _365
REMARK  147  A    between atoms: _365  and  _366
REMARK  148  A    between atoms: _365  and  _368
REMARK  149  A    between atoms: _368  and  _369
REMARK  150  A    between atoms: _374  and  _375
REMARK  151  A    between atoms: _377  and  _379
REMARK  152  A    between atoms: _379  and  _380
REMARK  153  A    between atoms: _379  and  _382
REMARK  154  A    between atoms: _382  and  _383
REMARK  155  A    between atoms: _383  and  _384
REMARK  156  A    between atoms: _384  and  _385
REMARK  157  A    between atoms: _385  and  _386
REMARK  158  A    between atoms: _390  and  _392
REMARK  159  A    between atoms: _392  and  _393
REMARK  160  A    between atoms: _392  and  _395
REMARK  161  A    between atoms: _395  and  _396
REMARK  162  A    between atoms: _399  and  _401
REMARK  163  A    between atoms: _401  and  _402
REMARK  164  A    between atoms: _401  and  _404
REMARK  165  A    between atoms: _404  and  _405
REMARK  166  A    between atoms: _405  and  _406
REMARK  167  A    between atoms: _409  and  _411
REMARK  168  A    between atoms: _411  and  _412
REMARK  169  A    between atoms: _411  and  _414
REMARK  170  A    between atoms: _414  and  _415
REMARK  171  A    between atoms: _425  and  _427
REMARK  172  A    between atoms: _427  and  _428
REMARK  173  A    between atoms: _427  and  _430
REMARK  174  A    between atoms: _430  and  _431
REMARK  175  A    between atoms: _431  and  _432
REMARK  176  A    between atoms: _437  and  _439
REMARK  177  A    between atoms: _439  and  _440
REMARK  178  A    between atoms: _439  and  _442
REMARK  179  A    between atoms: _444  and  _446
REMARK  180  A    between atoms: _446  and  _447
REMARK  181  A    between atoms: _449  and  _451
REMARK  182  A    between atoms: _451  and  _452
REMARK  183  A    between atoms: _451  and  _454
REMARK  184  A    between atoms: _454  and  _455
REMARK  185  A    between atoms: _458  and  _460
REMARK  186  A    between atoms: _460  and  _461
REMARK  187  A    between atoms: _460  and  _463
REMARK  188  A    between atoms: _466  and  _468
REMARK  189  A    between atoms: _468  and  _469
REMARK  190  A    between atoms: _468  and  _471
REMARK  191  A    between atoms: _471  and  _472
REMARK  192  A    between atoms: _472  and  _473
REMARK  193  A    between atoms: _478  and  _480
REMARK  194  A    between atoms: _480  and  _481
REMARK  195  A    between atoms: _480  and  _483
REMARK  196  A    between atoms: _483  and  _484
REMARK  197  A    between atoms: _487  and  _489
REMARK  198  A    between atoms: _489  and  _490
REMARK  199  A    between atoms: _489  and  _492
REMARK  200  A    between atoms: _492  and  _493
REMARK  201  A    between atoms: _496  and  _498
REMARK  202  A    between atoms: _498  and  _499
REMARK  203  A    between atoms: _498  and  _501
REMARK  204  A    between atoms: _501  and  _502
REMARK  205  A    between atoms: _502  and  _503
REMARK  206  A    between atoms: _505  and  _507
REMARK  207  A    between atoms: _507  and  _508
REMARK  208  A    between atoms: _507  and  _510
REMARK  209  A    between atoms: _510  and  _511
REMARK  210  A    between atoms: _514  and  _516
REMARK  211  A    between atoms: _516  and  _517
REMARK  212  A    between atoms: _516  and  _519
REMARK  213  A    between atoms: _519  and  _520
REMARK  214  A    between atoms: _521  and  ZN_650
REMARK  215  A    between atoms: _525  and  _527
REMARK  216  A    between atoms: _527  and  _528
REMARK  217  A    between atoms: _527  and  _530
REMARK  218  A    between atoms: _530  and  _531
REMARK  219  A    between atoms: _531  and  _532
REMARK  220  A    between atoms: _532  and  _533
REMARK  221  A    between atoms: _542  and  _544
REMARK  222  A    between atoms: _544  and  _545
REMARK  223  A    between atoms: _548  and  _550
REMARK  224  A    between atoms: _550  and  _551
REMARK  225  A    between atoms: _550  and  _553
REMARK  226  A    between atoms: _553  and  _554
REMARK  227  A    between atoms: _557  and  _559
REMARK  228  A    between atoms: _559  and  _560
REMARK  229  A    between atoms: _559  and  _562
REMARK  230  A    between atoms: _562  and  _563
REMARK  231  A    between atoms: _566  and  _568
REMARK  232  A    between atoms: _568  and  _569
REMARK  233  A    between atoms: _571  and  _573
REMARK  234  A    between atoms: _573  and  _574
REMARK  235  A    between atoms: _573  and  _576
REMARK  236  A    between atoms: _576  and  _577
REMARK  237  A    between atoms: _579  and  _581
REMARK  238  A    between atoms: _581  and  _582
REMARK  239  A    between atoms: _581  and  _584
REMARK  240  A    between atoms: _584  and  _585
REMARK  241  A    between atoms: _585  and  _586
REMARK  242  A    between atoms: _588  and  _590
REMARK  243  A    between atoms: _590  and  _591
REMARK  244  A    between atoms: _590  and  _593
REMARK  245  A    between atoms: _593  and  _594
REMARK  246  A    between atoms: _594  and  _595
REMARK  247  A    between atoms: _598  and  _600
REMARK  248  A    between atoms: _600  and  _601
REMARK  249  A    between atoms: _600  and  _603
REMARK  250  A    between atoms: _603  and  _604
REMARK  251  A    between atoms: _604  and  _605
REMARK  252  A    between atoms: _605  and  _606
REMARK  253  A    between atoms: _615  and  _617
REMARK  254  A    between atoms: _617  and  _618
REMARK  255  A    between atoms: _617  and  _620
REMARK  256  A    between atoms: _620  and  _621
REMARK  257  A    between atoms: _627  and  _629
REMARK  258  A    between atoms: _629  and  _630
REMARK  259  A    between atoms: _629  and  _632
REMARK  260  A    between atoms: _632  and  _633
REMARK  261  A    between atoms: _636  and  _638
REMARK  262  A    between atoms: _638  and  _639
REMARK  263  A    between atoms: _641  and  _643
REMARK  264  A    between atoms: _643  and  _644
REMARK  265  A    between atoms: _643  and  _646
REMARK  266  A    between atoms: _646  and  _647
REMARK                            x       y       z     vdW  Elec       q    Type
REMARK                         _______ _______ _______ _____ _____    ______ ____
ROOT
ATOM      1 ZN   UNK A   4       9.056 -32.039 -17.076  0.00  0.00    +0.000 Zn
ENDROOT
BRANCH   1   2
ATOM      2  N   UNK A   4       8.508 -30.422 -18.357  0.00  0.00    +0.000 N 
ATOM      3  C   UNK A   4       9.306 -29.378 -18.584  0.00  0.00    +0.000 A 
ATOM      4  N   UNK A   4       8.627 -28.482 -19.322  0.00  0.00    +0.000 NA
ATOM      5  C   UNK A   4       7.360 -28.941 -19.517  0.00  0.00    +0.000 A 
ATOM      6  C   UNK A   4       7.289 -30.169 -18.906  0.00  0.00    +0.000 A 
BRANCH   5   7
ATOM      7  C   UNK A   4       6.383 -28.231 -20.397  0.00  0.00    +0.000 C 
BRANCH   7   8
ATOM      8  C   UNK A   4       6.533 -28.685 -21.858  0.00  0.00    +0.000 C 
BRANCH   8   9
ATOM      9  N   UNK A   4       7.870 -28.399 -22.330  0.00  0.00    +0.000 N 
ATOM     10  H   UNK A   4       8.146 -27.407 -22.480  0.00  0.00    +0.000 HD
ATOM     11  C   ALA A  16       8.769 -29.364 -22.582  0.00  0.00    +0.000 C 
ATOM     12  O   ALA A  16       8.624 -30.568 -22.303  0.00  0.00    +0.000 OA
BRANCH  11  13
ATOM     13  CA  ALA A  16       9.989 -28.872 -23.306  0.00  0.00    +0.000 C 
ATOM     14  CB  ALA A  16       9.711 -28.781 -24.813  0.00  0.00    +0.000 C 
BRANCH  13  15
ATOM     15  N   ALA A  16      11.109 -29.787 -23.025  0.00  0.00    +0.000 N 
ATOM     16  H   ALA A  16      10.912 -30.755 -22.700  0.00  0.00    +0.000 HD
ATOM     17  C   ASP A  15      12.359 -29.394 -23.181  0.00  0.00    +0.000 C 
ATOM     18  O   ASP A  15      12.686 -28.438 -23.905  0.00  0.00    +0.000 OA
BRANCH  17  19
ATOM     19  CA  ASP A  15      13.400 -30.281 -22.491  0.00  0.00    +0.000 C 
BRANCH  19  20
ATOM     20  N   ASP A  15      14.732 -30.132 -23.092  0.00  0.00    +0.000 N 
ATOM     21  H   ASP A  15      15.357 -29.378 -22.741  0.00  0.00    +0.000 HD
ATOM     22  C   ASP A  14      15.170 -30.924 -24.068  0.00  0.00    +0.000 C 
ATOM     23  O   ASP A  14      14.415 -31.726 -24.700  0.00  0.00    +0.000 OA
BRANCH  22  24
ATOM     24  CA  ASP A  14      16.666 -30.826 -24.359  0.00  0.00    +0.000 C 
BRANCH  24  25
ATOM     25  N   ASP A  14      17.313 -31.533 -23.255  0.00  0.00    +0.000 N 
ATOM     26  C   GLN A  13      17.586 -30.904 -22.107  0.00  0.00    +0.000 C 
ATOM     27  O   GLN A  13      17.499 -29.672 -21.969  0.00  0.00    +0.000 OA
ATOM     28  H   ASP A  14      17.564 -32.536 -23.364  0.00  0.00    +0.000 HD
BRANCH  26  29
ATOM     29  CA  GLN A  13      17.992 -31.770 -20.921  0.00  0.00    +0.000 C 
BRANCH  29  30
ATOM     30  N   GLN A  13      19.025 -31.115 -20.115  0.00  0.00    +0.000 N 
ATOM     31  H   GLN A  13      18.760 -30.529 -19.298  0.00  0.00    +0.000 HD
ATOM     32  C   THR A  12      20.315 -31.278 -20.440  0.00  0.00    +0.000 C 
ATOM     33  O   THR A  12      20.692 -31.990 -21.383  0.00  0.00    +0.000 OA
BRANCH  32  34
ATOM     34  CA  THR A  12      21.314 -30.487 -19.622  0.00  0.00    +0.000 C 
BRANCH  34  35
ATOM     35  N   THR A  12      22.130 -31.442 -18.877  0.00  0.00    +0.000 N 
ATOM     36  C   PHE A  11      22.216 -31.419 -17.556  0.00  0.00    +0.000 C 
ATOM     37  O   PHE A  11      21.550 -30.671 -16.826  0.00  0.00    +0.000 OA
ATOM     38  H   THR A  12      22.662 -32.165 -19.402  0.00  0.00    +0.000 HD
BRANCH  36  39
ATOM     39  CA  PHE A  11      23.225 -32.379 -16.963  0.00  0.00    +0.000 C 
BRANCH  39  40
ATOM     40  N   PHE A  11      23.507 -32.043 -15.559  0.00  0.00    +0.000 N 
ATOM     41  H   PHE A  11      22.728 -31.750 -14.935  0.00  0.00    +0.000 HD
ATOM     42  C   GLY A  10      24.742 -32.108 -15.077  0.00  0.00    +0.000 C 
ATOM     43  O   GLY A  10      25.741 -32.355 -15.798  0.00  0.00    +0.000 OA
BRANCH  42  44
ATOM     44  CA  GLY A  10      24.898 -31.811 -13.580  0.00  0.00    +0.000 C 
BRANCH  44  45
ATOM     45  N   GLY A  10      25.292 -33.052 -12.889  0.00  0.00    +0.000 N 
ATOM     46  C   ARG A   9      24.480 -33.695 -12.039  0.00  0.00    +0.000 C 
ATOM     47  O   ARG A   9      23.357 -33.304 -11.732  0.00  0.00    +0.000 OA
ATOM     48  H   GLY A  10      26.238 -33.444 -13.068  0.00  0.00    +0.000 HD
BRANCH  46  49
ATOM     49  CA  ARG A   9      25.012 -34.991 -11.472  0.00  0.00    +0.000 C 
BRANCH  49  50
ATOM     50  N   ARG A   9      25.896 -35.679 -12.440  0.00  0.00    +0.000 N 
ATOM     51  H   ARG A   9      26.836 -35.287 -12.649  0.00  0.00    +0.000 HD
ATOM     52  C   VAL A   8      25.497 -36.795 -13.045  0.00  0.00    +0.000 C 
ATOM     53  O   VAL A   8      24.421 -37.326 -12.786  0.00  0.00    +0.000 OA
BRANCH  52  54
ATOM     54  CA  VAL A   8      26.411 -37.389 -14.138  0.00  0.00    +0.000 C 
BRANCH  54  55
ATOM     55  N   VAL A   8      25.675 -38.495 -14.793  0.00  0.00    +0.000 N 
ATOM     56  C   ARG A   7      26.097 -39.756 -14.816  0.00  0.00    +0.000 C 
ATOM     57  O   ARG A   7      27.167 -40.145 -14.345  0.00  0.00    +0.000 OA
ATOM     58  H   VAL A   8      24.774 -38.272 -15.263  0.00  0.00    +0.000 HD
BRANCH  56  59
ATOM     59  CA  ARG A   7      25.176 -40.693 -15.608  0.00  0.00    +0.000 C 
BRANCH  59  60
ATOM     60  N   ARG A   7      25.832 -40.998 -16.895  0.00  0.00    +0.000 N 
ATOM     61  H   ARG A   7      26.858 -41.169 -16.915  0.00  0.00    +0.000 HD
ATOM     62  C   MET A   6      25.142 -41.059 -18.028  0.00  0.00    +0.000 C 
ATOM     63  O   MET A   6      23.913 -41.013 -18.084  0.00  0.00    +0.000 OA
BRANCH  62  64
ATOM     64  CA  MET A   6      25.934 -41.225 -19.296  0.00  0.00    +0.000 C 
BRANCH  64  65
ATOM     65  N   MET A   6      27.282 -40.603 -19.207  0.00  0.00    +0.000 N 
ATOM     66  H   MET A   6      28.093 -41.179 -18.902  0.00  0.00    +0.000 HD
ATOM     67  C   LEU A   5      27.466 -39.324 -19.511  0.00  0.00    +0.000 C 
ATOM     68  O   LEU A   5      26.516 -38.550 -19.757  0.00  0.00    +0.000 OA
BRANCH  67  69
ATOM     69  CA  LEU A   5      28.925 -38.823 -19.598  0.00  0.00    +0.000 C 
BRANCH  69  70
ATOM     70  N   LEU A   5      29.912 -39.817 -19.111  0.00  0.00    +0.000 N 
ATOM     71  C   UNK A   4      30.251 -39.951 -17.833  0.00  0.00    +0.000 C 
ATOM     72  O   UNK A   4      29.863 -39.190 -16.900  0.00  0.00    +0.000 OA
ATOM     73  H   LEU A   5      30.364 -40.443 -19.808  0.00  0.00    +0.000 HD
BRANCH  71  74
ATOM     74  C   UNK A   4      31.216 -41.104 -17.574  0.00  0.00    +0.000 C 
BRANCH  74  75
ATOM     75  N   UNK A   4      30.808 -41.935 -16.446  0.00  0.00    +0.000 N 
ATOM     76  H   UNK A   4      31.498 -42.143 -15.696  0.00  0.00    +0.000 HD
ATOM     77  C   UNK A   3      29.574 -42.436 -16.349  0.00  0.00    +0.000 C 
ATOM     78  O   UNK A   3      28.671 -42.162 -17.139  0.00  0.00    +0.000 OA
BRANCH  77  79
ATOM     79  C   UNK A   3      29.308 -43.371 -15.190  0.00  0.00    +0.000 C 
BRANCH  79  80
ATOM     80  N   UNK A   3      28.626 -42.689 -14.108  0.00  0.00    +0.000 N 
ATOM     81  C   LEU A   2      28.763 -43.078 -12.845  0.00  0.00    +0.000 C 
ATOM     82  O   LEU A   2      29.473 -44.041 -12.501  0.00  0.00    +0.000 OA
ATOM     83  H   UNK A   3      28.015 -41.876 -14.325  0.00  0.00    +0.000 HD
BRANCH  81  84
ATOM     84  CA  LEU A   2      28.024 -42.251 -11.812  0.00  0.00    +0.000 C 
BRANCH  84  85
ATOM     85  N   LEU A   2      27.480 -43.112 -10.735  0.00  0.00    +0.000 N 
ATOM     86  H   LEU A   2      27.825 -42.996  -9.761  0.00  0.00    +0.000 HD
ATOM     87  C   SER A   1      26.557 -44.031 -11.000  0.00  0.00    +0.000 C 
ATOM     88  O   SER A   1      26.074 -44.200 -12.126  0.00  0.00    +0.000 OA
BRANCH  87  89
ATOM     89  CA  SER A   1      26.041 -44.862  -9.815  0.00  0.00    +0.000 C 
BRANCH  89  90
ATOM     90  N   SER A   1      26.830 -44.621  -8.615  0.00  0.00    +0.000 NA
ATOM     91  H   SER A   1      26.644 -43.777  -8.036  0.00  0.00    +0.000 HD
ENDBRANCH  89  90
BRANCH  89  92
ATOM     92  CB  SER A   1      24.545 -44.553  -9.596  0.00  0.00    +0.000 C 
BRANCH  92  93
ATOM     93  OG  SER A   1      24.298 -43.141  -9.572  0.00  0.00    +0.000 OA
ATOM     94  H   SER A   1      24.815 -42.729  -8.835  0.00  0.00    +0.000 HD
ENDBRANCH  92  93
ENDBRANCH  89  92
ENDBRANCH  87  89
ENDBRANCH  84  85
BRANCH  84  95
ATOM     95  CB  LEU A   2      28.921 -41.147 -11.245  0.00  0.00    +0.000 C 
BRANCH  95  96
ATOM     96  CG  LEU A   2      28.213 -40.249 -10.210  0.00  0.00    +0.000 C 
ATOM     97  CD2 LEU A   2      29.123 -39.114  -9.768  0.00  0.00    +0.000 C 
ATOM     98  CD1 LEU A   2      26.914 -39.689 -10.797  0.00  0.00    +0.000 C 
ENDBRANCH  95  96
ENDBRANCH  84  95
ENDBRANCH  81  84
ENDBRANCH  79  80
BRANCH  79  99
ATOM     99  C   UNK A   3      28.498 -44.585 -15.627  0.00  0.00    +0.000 C 
BRANCH  99 100
ATOM    100  C   UNK A   3      29.088 -45.307 -16.811  0.00  0.00    +0.000 A 
ATOM    101  N   UNK A   3      30.246 -46.038 -16.734  0.00  0.00    +0.000 NA
ATOM    102  C   UNK A   3      30.519 -46.550 -17.947  0.00  0.00    +0.000 A 
ATOM    103  N   UNK A   3      29.560 -46.134 -18.803  0.00  0.00    +0.000 NA
ATOM    104  C   UNK A   3      28.652 -45.402 -18.122  0.00  0.00    +0.000 A 
ENDBRANCH  99 100
ENDBRANCH  79  99
ENDBRANCH  77  79
ENDBRANCH  74  75
ENDBRANCH  71  74
ENDBRANCH  69  70
BRANCH  69 105
ATOM    105  CB  LEU A   5      29.235 -38.455 -21.052  0.00  0.00    +0.000 C 
BRANCH 105 106
ATOM    106  CG  LEU A   5      30.524 -37.690 -21.325  0.00  0.00    +0.000 C 
ATOM    107  CD2 LEU A   5      30.606 -36.392 -20.512  0.00  0.00    +0.000 C 
ATOM    108  CD1 LEU A   5      30.589 -37.405 -22.812  0.00  0.00    +0.000 C 
ENDBRANCH 105 106
ENDBRANCH  69 105
ENDBRANCH  67  69
ENDBRANCH  64  65
BRANCH  64 109
ATOM    109  CB  MET A   6      26.017 -42.720 -19.540  0.00  0.00    +0.000 C 
BRANCH 109 110
ATOM    110  CG  MET A   6      27.059 -43.083 -20.522  0.00  0.00    +0.000 C 
BRANCH 110 111
ATOM    111  SD  MET A   6      26.225 -42.751 -22.037  0.00  0.00    +0.000 S 
ATOM    112  CE  MET A   6      27.004 -44.119 -22.900  0.00  0.00    +0.000 C 
ENDBRANCH 110 111
ENDBRANCH 109 110
ENDBRANCH  64 109
ENDBRANCH  62  64
ENDBRANCH  59  60
BRANCH  59 113
ATOM    113  CB  ARG A   7      24.742 -41.933 -14.811  0.00  0.00    +0.000 C 
BRANCH 113 114
ATOM    114  CG  ARG A   7      23.852 -41.542 -13.628  0.00  0.00    +0.000 C 
BRANCH 114 115
ATOM    115  CD  ARG A   7      23.206 -42.710 -12.894  0.00  0.00    +0.000 C 
BRANCH 115 116
ATOM    116  NE  ARG A   7      22.367 -43.528 -13.775  0.00  0.00    +0.330 N 
ATOM    117  CZ  ARG A   7      22.648 -44.796 -14.094  0.00  0.00    +0.000 C 
ATOM    118  NH2 ARG A   7      23.736 -45.394 -13.631  0.00  0.00    +0.330 N 
ATOM    119 HH21 ARG A   7      24.389 -44.877 -13.008  0.00  0.00    +0.000 HD
ATOM    120 HH22 ARG A   7      23.937 -46.381 -13.890  0.00  0.00    +0.000 HD
ATOM    121  NH1 ARG A   7      21.838 -45.472 -14.874  0.00  0.00    +0.330 N 
ATOM    122 HH11 ARG A   7      22.057 -46.458 -15.122  0.00  0.00    +0.000 HD
ATOM    123 HH12 ARG A   7      20.977 -45.022 -15.245  0.00  0.00    +0.000 HD
ATOM    124  HE  ARG A   7      21.507 -43.099 -14.173  0.00  0.00    +0.000 HD
ENDBRANCH 115 116
ENDBRANCH 114 115
ENDBRANCH 113 114
ENDBRANCH  59 113
ENDBRANCH  56  59
ENDBRANCH  54  55
BRANCH  54 125
ATOM    125  CB  VAL A   8      26.827 -36.312 -15.170  0.00  0.00    +0.000 C 
ATOM    126  CG2 VAL A   8      25.604 -35.627 -15.800  0.00  0.00    +0.000 C 
ATOM    127  CG1 VAL A   8      27.681 -36.897 -16.289  0.00  0.00    +0.000 C 
ENDBRANCH  54 125
ENDBRANCH  52  54
ENDBRANCH  49  50
BRANCH  49 128
ATOM    128  CB  ARG A   9      25.757 -34.724 -10.175  0.00  0.00    +0.000 C 
BRANCH 128 129
ATOM    129  CG  ARG A   9      25.842 -35.964  -9.317  0.00  0.00    +0.000 C 
BRANCH 129 130
ATOM    130  CD  ARG A   9      26.613 -35.660  -8.073  0.00  0.00    +0.000 C 
BRANCH 130 131
ATOM    131  NE  ARG A   9      26.632 -36.824  -7.192  0.00  0.00    +0.330 N 
ATOM    132  CZ  ARG A   9      27.296 -36.863  -6.033  0.00  0.00    +0.000 C 
ATOM    133  NH2 ARG A   9      27.208 -37.958  -5.280  0.00  0.00    +0.330 N 
ATOM    134 HH21 ARG A   9      27.717 -38.009  -4.374  0.00  0.00    +0.000 HD
ATOM    135 HH22 ARG A   9      26.630 -38.762  -5.598  0.00  0.00    +0.000 HD
ATOM    136  NH1 ARG A   9      28.015 -35.808  -5.616  0.00  0.00    +0.330 N 
ATOM    137 HH11 ARG A   9      28.527 -35.852  -4.712  0.00  0.00    +0.000 HD
ATOM    138 HH12 ARG A   9      28.060 -34.947  -6.197  0.00  0.00    +0.000 HD
ATOM    139  HE  ARG A   9      26.100 -37.669  -7.482  0.00  0.00    +0.000 HD
ENDBRANCH 130 131
ENDBRANCH 129 130
ENDBRANCH 128 129
ENDBRANCH  49 128
ENDBRANCH  46  49
ENDBRANCH  44  45
ENDBRANCH  42  44
ENDBRANCH  39  40
BRANCH  39 140
ATOM    140  CB  PHE A  11      22.692 -33.842 -17.093  0.00  0.00    +0.000 C 
BRANCH 140 141
ATOM    141  CG  PHE A  11      21.470 -34.096 -16.261  0.00  0.00    +0.000 A 
ATOM    142  CD2 PHE A  11      21.608 -34.447 -14.890  0.00  0.00    +0.000 A 
ATOM    143  CE2 PHE A  11      20.471 -34.673 -14.099  0.00  0.00    +0.000 A 
ATOM    144  CZ  PHE A  11      19.214 -34.569 -14.673  0.00  0.00    +0.000 A 
ATOM    145  CE1 PHE A  11      19.071 -34.231 -16.019  0.00  0.00    +0.000 A 
ATOM    146  CD1 PHE A  11      20.157 -33.971 -16.813  0.00  0.00    +0.000 A 
ENDBRANCH 140 141
ENDBRANCH  39 140
ENDBRANCH  36  39
ENDBRANCH  34  35
BRANCH  34 147
ATOM    147  CB  THR A  12      22.162 -29.596 -20.560  0.00  0.00    +0.000 C 
ATOM    148  CG2 THR A  12      21.308 -28.606 -21.291  0.00  0.00    +0.000 C 
BRANCH 147 149
ATOM    149  OG1 THR A  12      23.080 -28.849 -19.768  0.00  0.00    +0.000 OA
ATOM    150  HG1 THR A  12      23.630 -28.274 -20.357  0.00  0.00    +0.000 HD
ENDBRANCH 147 149
ENDBRANCH  34 147
ENDBRANCH  32  34
ENDBRANCH  29  30
BRANCH  29 151
ATOM    151  CB  GLN A  13      16.726 -32.019 -20.105  0.00  0.00    +0.000 C 
BRANCH 151 152
ATOM    152  CG  GLN A  13      16.933 -32.805 -18.812  0.00  0.00    +0.000 C 
BRANCH 152 153
ATOM    153  CD  GLN A  13      15.662 -32.878 -17.961  0.00  0.00    +0.000 C 
ATOM    154  NE2 GLN A  13      15.405 -34.079 -17.391  0.00  0.00    +0.000 N 
ATOM    155 HE21 GLN A  13      14.556 -34.205 -16.803  0.00  0.00    +0.000 HD
ATOM    156 HE22 GLN A  13      16.056 -34.876 -17.541  0.00  0.00    +0.000 HD
ATOM    157  OE1 GLN A  13      14.910 -31.901 -17.807  0.00  0.00    +0.000 OA
ENDBRANCH 152 153
ENDBRANCH 151 152
ENDBRANCH  29 151
ENDBRANCH  26  29
ENDBRANCH  24  25
BRANCH  24 158
ATOM    158  CB  ASP A  14      17.088 -31.387 -25.739  0.00  0.00    +0.000 C 
BRANCH 158 159
ATOM    159  CG  ASP A  14      16.648 -32.831 -25.946  0.00  0.00    +0.000 C 
ATOM    160  OD2 ASP A  14      16.864 -33.636 -25.021  0.00  0.00    +0.000 OA
ATOM    161  OD1 ASP A  14      16.079 -33.152 -27.005  0.00  0.00    +0.000 OA
ENDBRANCH 158 159
ENDBRANCH  24 158
ENDBRANCH  22  24
ENDBRANCH  19  20
BRANCH  19 162
ATOM    162  CB  ASP A  15      13.527 -29.917 -21.005  0.00  0.00    +0.000 C 
BRANCH 162 163
ATOM    163  CG  ASP A  15      12.405 -30.437 -20.140  0.00  0.00    +0.000 C 
ATOM    164  OD2 ASP A  15      12.376 -29.990 -18.969  0.00  0.00    +0.000 OA
ATOM    165  OD1 ASP A  15      11.597 -31.287 -20.586  0.00  0.00    +0.000 OA
ENDBRANCH 162 163
ENDBRANCH  19 162
ENDBRANCH  17  19
ENDBRANCH  13  15
ENDBRANCH  11  13
ENDBRANCH   8   9
BRANCH   8 166
ATOM    166  C   UNK A   4       5.559 -28.053 -22.784  0.00  0.00    +0.000 C 
ATOM    167  N   ILE A  18       4.543 -28.835 -23.134  0.00  0.00    +0.000 N 
ATOM    168  H   ILE A  18       4.504 -29.805 -22.761  0.00  0.00    +0.000 HD
ATOM    169  O   UNK A   4       5.705 -26.902 -23.152  0.00  0.00    +0.000 OA
BRANCH 167 170
ATOM    170  CA  ILE A  18       3.492 -28.383 -24.015  0.00  0.00    +0.000 C 
BRANCH 170 171
ATOM    171  CB  ILE A  18       3.271 -29.370 -25.181  0.00  0.00    +0.000 C 
ATOM    172  CG2 ILE A  18       2.068 -28.897 -26.020  0.00  0.00    +0.000 C 
BRANCH 171 173
ATOM    173  CG1 ILE A  18       4.548 -29.497 -26.028  0.00  0.00    +0.000 C 
ATOM    174  CD1 ILE A  18       4.456 -30.668 -27.026  0.00  0.00    +0.000 C 
ENDBRANCH 171 173
ENDBRANCH 170 171
BRANCH 170 175
ATOM    175  C   ILE A  18       2.242 -28.277 -23.181  0.00  0.00    +0.000 C 
ATOM    176  O   ILE A  18       1.827 -29.255 -22.511  0.00  0.00    +0.000 OA
ENDBRANCH 170 175
ENDBRANCH 167 170
ENDBRANCH   8 166
ENDBRANCH   7   8
ENDBRANCH   5   7
ENDBRANCH   1   2
BRANCH   1 177
ATOM    177  N   UNK A   3       7.170 -32.964 -17.273  0.00  0.00    +0.000 N 
ATOM    178  C   UNK A   3       6.306 -32.655 -16.274  0.00  0.00    +0.000 A 
ATOM    179  N   UNK A   3       5.049 -32.926 -16.709  0.00  0.00    +0.000 NA
ATOM    180  C   UNK A   3       5.133 -33.407 -17.983  0.00  0.00    +0.000 A 
ATOM    181  C   UNK A   3       6.503 -33.381 -18.350  0.00  0.00    +0.000 A 
BRANCH 181 182
ATOM    182  C   UNK A   3       7.231 -33.826 -19.588  0.00  0.00    +0.000 C 
BRANCH 182 183
ATOM    183  C   UNK A   3       6.743 -33.221 -20.900  0.00  0.00    +0.000 C 
BRANCH 183 184
ATOM    184  N   UNK A   3       5.285 -33.458 -21.061  0.00  0.00    +0.000 N 
ATOM    185  H   UNK A   3       4.863 -34.334 -20.692  0.00  0.00    +0.000 HD
ATOM    186  C   LEU A   2       4.512 -32.563 -21.671  0.00  0.00    +0.000 C 
ATOM    187  O   LEU A   2       4.919 -31.444 -22.030  0.00  0.00    +0.000 OA
BRANCH 186 188
ATOM    188  CA  LEU A   2       3.060 -32.942 -21.914  0.00  0.00    +0.000 C 
BRANCH 188 189
ATOM    189  N   LEU A   2       2.257 -31.853 -21.379  0.00  0.00    +0.000 N 
ATOM    190  C   SER A   1       1.651 -31.948 -20.204  0.00  0.00    +0.000 C 
ATOM    191  O   SER A   1       1.594 -33.005 -19.554  0.00  0.00    +0.000 OA
ATOM    192  H   LEU A   2       2.156 -30.978 -21.932  0.00  0.00    +0.000 HD
BRANCH 190 193
ATOM    193  CA  SER A   1       0.983 -30.688 -19.692  0.00  0.00    +0.000 C 
BRANCH 193 194
ATOM    194  N   SER A   1      -0.430 -30.951 -19.345  0.00  0.00    +0.000 NA
ATOM    195  H   SER A   1      -0.679 -31.689 -18.655  0.00  0.00    +0.000 HD
ENDBRANCH 193 194
BRANCH 193 196
ATOM    196  CB  SER A   1       1.761 -30.098 -18.508  0.00  0.00    +0.000 C 
BRANCH 196 197
ATOM    197  CG  SER A   1       3.073 -29.405 -18.907  0.00  0.00    +0.000 C 
BRANCH 197 198
ATOM    198  SD  SER A   1       3.766 -28.410 -17.531  0.00  0.00    +0.000 S 
ATOM    199  CE  SER A   1       4.079 -29.690 -16.293  0.00  0.00    +0.000 C 
ENDBRANCH 197 198
ENDBRANCH 196 197
ENDBRANCH 193 196
ENDBRANCH 190 193
ENDBRANCH 188 189
BRANCH 188 200
ATOM    200  CB  LEU A   2       2.812 -33.113 -23.425  0.00  0.00    +0.000 C 
ATOM    201  CG2 LEU A   2       3.863 -34.072 -24.056  0.00  0.00    +0.000 C 
BRANCH 200 202
ATOM    202  CG1 LEU A   2       1.342 -33.559 -23.642  0.00  0.00    +0.000 C 
ATOM    203  CD1 LEU A   2       0.802 -33.290 -25.038  0.00  0.00    +0.000 C 
ENDBRANCH 200 202
ENDBRANCH 188 200
ENDBRANCH 186 188
ENDBRANCH 183 184
BRANCH 183 204
ATOM    204  C   UNK A   3       7.452 -34.027 -21.953  0.00  0.00    +0.000 C 
ATOM    205  O   UNK A   3       7.096 -35.191 -22.193  0.00  0.00    +0.000 OA
ATOM    206  N   UNK A   4       8.518 -33.520 -22.555  0.00  0.00    +0.000 N 
ATOM    207  H   UNK A   4       8.805 -32.535 -22.385  0.00  0.00    +0.000 HD
BRANCH 206 208
ATOM    208  C   UNK A   4       9.285 -34.376 -23.465  0.00  0.00    +0.000 C 
BRANCH 208 209
ATOM    209  C   UNK A   4      10.725 -33.929 -23.574  0.00  0.00    +0.000 C 
ATOM    210  O   UNK A   4      11.013 -32.706 -23.494  0.00  0.00    +0.000 OA
ATOM    211  N   LEU A   5      11.632 -34.902 -23.673  0.00  0.00    +0.000 N 
ATOM    212  H   LEU A   5      11.350 -35.878 -23.452  0.00  0.00    +0.000 HD
BRANCH 211 213
ATOM    213  CA  LEU A   5      13.045 -34.632 -24.093  0.00  0.00    +0.000 C 
ATOM    214  CB  LEU A   5      14.033 -34.871 -22.921  0.00  0.00    +0.000 C 
BRANCH 213 215
ATOM    215  C   LEU A   5      13.302 -35.560 -25.255  0.00  0.00    +0.000 C 
ATOM    216  O   LEU A   5      12.802 -36.691 -25.268  0.00  0.00    +0.000 OA
ATOM    217  N   MET A   6      14.012 -35.096 -26.279  0.00  0.00    +0.000 N 
ATOM    218  H   MET A   6      14.446 -34.152 -26.229  0.00  0.00    +0.000 HD
BRANCH 217 219
ATOM    219  CA  MET A   6      14.183 -35.934 -27.498  0.00  0.00    +0.000 C 
BRANCH 219 220
ATOM    220  C   MET A   6      15.526 -36.668 -27.373  0.00  0.00    +0.000 C 
ATOM    221  N   ARG A   7      16.624 -35.912 -27.222  0.00  0.00    +0.000 N 
ATOM    222  H   ARG A   7      16.534 -34.877 -27.264  0.00  0.00    +0.000 HD
ATOM    223  O   MET A   6      15.565 -37.922 -27.393  0.00  0.00    +0.000 OA
BRANCH 221 224
ATOM    224  CA  ARG A   7      17.951 -36.506 -26.999  0.00  0.00    +0.000 C 
BRANCH 224 225
ATOM    225  C   ARG A   7      18.016 -37.074 -25.575  0.00  0.00    +0.000 C 
ATOM    226  N   VAL A   8      17.342 -36.428 -24.620  0.00  0.00    +0.000 N 
ATOM    227  H   VAL A   8      16.784 -35.586 -24.867  0.00  0.00    +0.000 HD
ATOM    228  O   ARG A   7      18.629 -38.123 -25.344  0.00  0.00    +0.000 OA
BRANCH 226 229
ATOM    229  CA  VAL A   8      17.378 -36.888 -23.230  0.00  0.00    +0.000 C 
BRANCH 229 230
ATOM    230  C   VAL A   8      18.172 -35.908 -22.409  0.00  0.00    +0.000 C 
ATOM    231  O   VAL A   8      17.623 -34.903 -21.929  0.00  0.00    +0.000 OA
ATOM    232  N   ARG A   9      19.443 -36.215 -22.223  0.00  0.00    +0.000 N 
ATOM    233  H   ARG A   9      19.771 -37.197 -22.327  0.00  0.00    +0.000 HD
BRANCH 232 234
ATOM    234  CA  ARG A   9      20.394 -35.138 -21.864  0.00  0.00    +0.000 C 
BRANCH 234 235
ATOM    235  C   ARG A   9      21.417 -35.007 -22.987  0.00  0.00    +0.000 C 
ATOM    236  N   GLY A  10      21.994 -33.807 -23.118  0.00  0.00    +0.000 N 
ATOM    237  H   GLY A  10      21.715 -33.030 -22.486  0.00  0.00    +0.000 HD
ATOM    238  O   ARG A   9      21.712 -35.981 -23.715  0.00  0.00    +0.000 OA
BRANCH 236 239
ATOM    239  CA  GLY A  10      22.989 -33.583 -24.118  0.00  0.00    +0.000 C 
BRANCH 239 240
ATOM    240  C   GLY A  10      24.218 -34.465 -23.787  0.00  0.00    +0.000 C 
ATOM    241  N   PHE A  11      24.532 -34.568 -22.491  0.00  0.00    +0.000 N 
ATOM    242  H   PHE A  11      23.921 -34.105 -21.788  0.00  0.00    +0.000 HD
ATOM    243  O   GLY A  10      24.845 -35.024 -24.688  0.00  0.00    +0.000 OA
BRANCH 241 244
ATOM    244  CA  PHE A  11      25.721 -35.319 -22.023  0.00  0.00    +0.000 C 
BRANCH 244 245
ATOM    245  C   PHE A  11      25.563 -36.793 -22.383  0.00  0.00    +0.000 C 
ATOM    246  N   THR A  12      24.403 -37.363 -22.011  0.00  0.00    +0.000 N 
ATOM    247  H   THR A  12      23.654 -36.794 -21.566  0.00  0.00    +0.000 HD
ATOM    248  O   PHE A  11      26.445 -37.379 -23.001  0.00  0.00    +0.000 OA
BRANCH 246 249
ATOM    249  CA  THR A  12      24.208 -38.809 -22.244  0.00  0.00    +0.000 C 
BRANCH 249 250
ATOM    250  C   THR A  12      24.159 -39.070 -23.745  0.00  0.00    +0.000 C 
ATOM    251  O   THR A  12      24.683 -40.094 -24.224  0.00  0.00    +0.000 OA
ATOM    252  N   GLN A  13      23.524 -38.158 -24.496  0.00  0.00    +0.000 N 
ATOM    253  H   GLN A  13      23.107 -37.311 -24.060  0.00  0.00    +0.000 HD
BRANCH 252 254
ATOM    254  CA  GLN A  13      23.429 -38.377 -25.944  0.00  0.00    +0.000 C 
BRANCH 254 255
ATOM    255  C   GLN A  13      24.807 -38.305 -26.584  0.00  0.00    +0.000 C 
ATOM    256  N   ASP A  14      25.633 -37.356 -26.171  0.00  0.00    +0.000 N 
ATOM    257  H   ASP A  14      25.299 -36.619 -25.518  0.00  0.00    +0.000 HD
ATOM    258  O   GLN A  13      25.135 -39.120 -27.447  0.00  0.00    +0.000 OA
BRANCH 256 259
ATOM    259  CA  ASP A  14      27.027 -37.352 -26.643  0.00  0.00    +0.000 C 
BRANCH 259 260
ATOM    260  C   ASP A  14      27.766 -38.642 -26.271  0.00  0.00    +0.000 C 
ATOM    261  N   ASP A  15      27.568 -39.121 -25.034  0.00  0.00    +0.000 N 
ATOM    262  H   ASP A  15      26.999 -38.577 -24.354  0.00  0.00    +0.000 HD
ATOM    263  O   ASP A  14      28.484 -39.236 -27.132  0.00  0.00    +0.000 OA
BRANCH 261 264
ATOM    264  CA  ASP A  15      28.155 -40.420 -24.629  0.00  0.00    +0.000 C 
BRANCH 264 265
ATOM    265  C   ASP A  15      27.755 -41.535 -25.595  0.00  0.00    +0.000 C 
ATOM    266  N   ALA A  16      26.457 -41.606 -25.888  0.00  0.00    +0.000 N 
ATOM    267  H   ALA A  16      25.806 -40.931 -25.439  0.00  0.00    +0.000 HD
ATOM    268  O   ASP A  15      28.609 -42.335 -26.058  0.00  0.00    +0.000 OA
BRANCH 266 269
ATOM    269  CA  ALA A  16      25.909 -42.603 -26.823  0.00  0.00    +0.000 C 
BRANCH 269 270
ATOM    270  CB  ALA A  16      24.371 -42.516 -26.887  0.00  0.00    +0.000 C 
ATOM    271  CG2 ALA A  16      23.808 -43.363 -28.040  0.00  0.00    +0.000 C 
BRANCH 270 272
ATOM    272  CG1 ALA A  16      23.750 -42.941 -25.544  0.00  0.00    +0.000 C 
ATOM    273  CD1 ALA A  16      23.785 -44.456 -25.255  0.00  0.00    +0.000 C 
ENDBRANCH 270 272
ENDBRANCH 269 270
BRANCH 269 274
ATOM    274  C   ALA A  16      26.531 -42.483 -28.228  0.00  0.00    +0.000 C 
ATOM    275  O   ALA A  16      26.965 -43.493 -28.812  0.00  0.00    +0.000 OA
ENDBRANCH 269 274
ENDBRANCH 266 269
ENDBRANCH 264 265
ENDBRANCH 261 264
ENDBRANCH 259 260
BRANCH 259 276
ATOM    276  CB  ASP A  14      27.787 -36.104 -26.148  0.00  0.00    +0.000 C 
ATOM    277  CG2 ASP A  14      29.296 -36.225 -26.428  0.00  0.00    +0.000 C 
BRANCH 276 278
ATOM    278  CG1 ASP A  14      27.221 -34.863 -26.873  0.00  0.00    +0.000 C 
ATOM    279  CD1 ASP A  14      27.693 -33.502 -26.276  0.00  0.00    +0.000 C 
ENDBRANCH 276 278
ENDBRANCH 259 276
ENDBRANCH 256 259
ENDBRANCH 254 255
BRANCH 254 280
ATOM    280  CB  GLN A  13      22.457 -37.378 -26.604  0.00  0.00    +0.000 C 
BRANCH 280 281
ATOM    281  CG  GLN A  13      21.979 -37.817 -27.954  0.00  0.00    +0.000 A 
ATOM    282  CD2 GLN A  13      20.895 -38.728 -28.045  0.00  0.00    +0.000 A 
ATOM    283  CE2 GLN A  13      20.469 -39.173 -29.277  0.00  0.00    +0.000 A 
ATOM    284  CZ  GLN A  13      21.085 -38.702 -30.434  0.00  0.00    +0.000 A 
ATOM    285  CE1 GLN A  13      22.130 -37.782 -30.367  0.00  0.00    +0.000 A 
ATOM    286  CD1 GLN A  13      22.578 -37.340 -29.117  0.00  0.00    +0.000 A 
ENDBRANCH 280 281
ENDBRANCH 254 280
ENDBRANCH 252 254
ENDBRANCH 249 250
BRANCH 249 287
ATOM    287  CB  THR A  12      22.904 -39.216 -21.606  0.00  0.00    +0.000 C 
BRANCH 287 288
ATOM    288  CG  THR A  12      22.554 -40.699 -21.846  0.00  0.00    +0.000 C 
BRANCH 288 289
ATOM    289  CD  THR A  12      21.289 -41.000 -21.054  0.00  0.00    +0.000 C 
BRANCH 289 290
ATOM    290  NE  THR A  12      21.587 -41.100 -19.630  0.00  0.00    +0.330 N 
ATOM    291  CZ  THR A  12      20.685 -41.288 -18.678  0.00  0.00    +0.000 C 
ATOM    292  NH2 THR A  12      21.063 -41.342 -17.404  0.00  0.00    +0.330 N 
ATOM    293 HH21 THR A  12      20.354 -41.490 -16.657  0.00  0.00    +0.000 HD
ATOM    294 HH22 THR A  12      22.067 -41.237 -17.155  0.00  0.00    +0.000 HD
ATOM    295  NH1 THR A  12      19.390 -41.369 -18.975  0.00  0.00    +0.330 N 
ATOM    296 HH11 THR A  12      18.691 -41.517 -18.219  0.00  0.00    +0.000 HD
ATOM    297 HH12 THR A  12      19.077 -41.285 -19.963  0.00  0.00    +0.000 HD
ATOM    298  HE  THR A  12      22.582 -41.018 -19.340  0.00  0.00    +0.000 HD
ENDBRANCH 289 290
ENDBRANCH 288 289
ENDBRANCH 287 288
ENDBRANCH 249 287
ENDBRANCH 246 249
ENDBRANCH 244 245
BRANCH 244 299
ATOM    299  CB  PHE A  11      25.883 -35.156 -20.514  0.00  0.00    +0.000 C 
BRANCH 299 300
ATOM    300  CG  PHE A  11      26.317 -33.711 -20.103  0.00  0.00    +0.000 C 
BRANCH 300 301
ATOM    301  CD  PHE A  11      25.162 -32.715 -19.987  0.00  0.00    +0.000 C 
ATOM    302  OE2 PHE A  11      25.474 -31.563 -19.553  0.00  0.00    +0.000 OA
ATOM    303  OE1 PHE A  11      24.000 -33.069 -20.247  0.00  0.00    +0.000 OA
ENDBRANCH 300 301
ENDBRANCH 299 300
ENDBRANCH 244 299
ENDBRANCH 241 244
ENDBRANCH 239 240
BRANCH 239 304
ATOM    304  CB  GLY A  10      23.449 -32.127 -24.128  0.00  0.00    +0.000 C 
BRANCH 304 305
ATOM    305  CG  GLY A  10      22.332 -31.089 -24.289  0.00  0.00    +0.000 C 
BRANCH 305 306
ATOM    306  SD  GLY A  10      21.409 -31.200 -25.834  0.00  0.00    +0.000 S 
ATOM    307  CE  GLY A  10      22.573 -30.435 -26.886  0.00  0.00    +0.000 C 
ENDBRANCH 305 306
ENDBRANCH 304 305
ENDBRANCH 239 304
ENDBRANCH 236 239
ENDBRANCH 234 235
BRANCH 234 308
ATOM    308  CB  ARG A   9      21.091 -35.374 -20.522  0.00  0.00    +0.000 C 
BRANCH 308 309
ATOM    309  O   ARG A   9      21.979 -36.475 -20.613  0.00  0.00    +0.000 OA
ATOM    310  H   ARG A   9      22.421 -36.614 -19.738  0.00  0.00    +0.000 HD
ENDBRANCH 308 309
ENDBRANCH 234 308
ENDBRANCH 232 234
ENDBRANCH 229 230
ENDBRANCH 226 229
ENDBRANCH 224 225
BRANCH 224 311
ATOM    311  CB  ARG A   7      19.064 -35.466 -27.212  0.00  0.00    +0.000 C 
BRANCH 311 312
ATOM    312  CG  ARG A   7      19.081 -34.708 -28.561  0.00  0.00    +0.000 C 
ATOM    313  CD2 ARG A   7      20.336 -33.819 -28.672  0.00  0.00    +0.000 C 
ATOM    314  CD1 ARG A   7      18.963 -35.648 -29.770  0.00  0.00    +0.000 C 
ENDBRANCH 311 312
ENDBRANCH 224 311
ENDBRANCH 221 224
ENDBRANCH 219 220
BRANCH 219 315
ATOM    315  CB  MET A   6      14.049 -35.107 -28.812  0.00  0.00    +0.000 C 
ATOM    316  CG2 MET A   6      14.183 -36.027 -30.046  0.00  0.00    +0.000 C 
BRANCH 315 317
ATOM    317  CG1 MET A   6      12.794 -34.212 -28.827  0.00  0.00    +0.000 C 
ATOM    318  CD1 MET A   6      11.465 -34.969 -28.760  0.00  0.00    +0.000 C 
ENDBRANCH 315 317
ENDBRANCH 219 315
ENDBRANCH 217 219
ENDBRANCH 213 215
ENDBRANCH 211 213
ENDBRANCH 208 209
BRANCH 208 319
ATOM    319  C   UNK A   4       8.646 -34.574 -24.873  0.00  0.00    +0.000 C 
BRANCH 319 320
ATOM    320  C   UNK A   4       9.286 -33.793 -26.041  0.00  0.00    +0.000 C 
BRANCH 320 321
ATOM    321  C   UNK A   4       8.969 -32.309 -25.920  0.00  0.00    +0.000 C 
BRANCH 321 322
ATOM    322  N   UNK A   4       9.604 -31.598 -27.050  0.00  0.00    +0.330 N 
ATOM    323  C   UNK A   4      10.887 -31.218 -27.083  0.00  0.00    +0.000 C 
ATOM    324  N   UNK A   4      11.708 -31.447 -26.061  0.00  0.00    +0.330 N 
ATOM    325  H   UNK A   4      11.357 -31.932 -25.211  0.00  0.00    +0.000 HD
ATOM    326  H   UNK A   4      12.701 -31.141 -26.113  0.00  0.00    +0.000 HD
ATOM    327  N   UNK A   4      11.325 -30.568 -28.144  0.00  0.00    +0.330 N 
ATOM    328  H   UNK A   4      12.318 -30.262 -28.193  0.00  0.00    +0.000 HD
ATOM    329  H   UNK A   4      10.678 -30.361 -28.931  0.00  0.00    +0.000 HD
ATOM    330  H   UNK A   4       9.013 -31.378 -27.877  0.00  0.00    +0.000 HD
ENDBRANCH 321 322
ENDBRANCH 320 321
ENDBRANCH 319 320
ENDBRANCH 208 319
ENDBRANCH 206 208
ENDBRANCH 183 204
ENDBRANCH 182 183
ENDBRANCH 181 182
ENDBRANCH   1 177
BRANCH   1 331
ATOM    331  S   UNK A   4       9.065 -30.923 -14.973  0.00  0.00    +0.000 S 
BRANCH 331 332
ATOM    332  C   UNK A   4       7.985 -29.484 -15.285  0.00  0.00    +0.000 C 
BRANCH 332 333
ATOM    333  C   UNK A   4       8.734 -28.123 -15.465  0.00  0.00    +0.000 C 
BRANCH 333 334
ATOM    334  C   UNK A   4       8.150 -27.034 -14.559  0.00  0.00    +0.000 C 
ATOM    335  N   LEU A   5       8.519 -27.033 -13.265  0.00  0.00    +0.000 N 
ATOM    336  CA  LEU A   5       7.925 -26.012 -12.425  0.00  0.00    +0.000 C 
ATOM    337  CB  LEU A   5       8.459 -26.362 -11.026  0.00  0.00    +0.000 C 
ATOM    338  CG  LEU A   5       8.574 -27.860 -11.105  0.00  0.00    +0.000 C 
ATOM    339  CD  LEU A   5       9.151 -28.089 -12.457  0.00  0.00    +0.000 C 
ATOM    340  O   UNK A   4       7.386 -26.180 -15.041  0.00  0.00    +0.000 OA
BRANCH 336 341
ATOM    341  C   LEU A   5       8.274 -24.593 -12.883  0.00  0.00    +0.000 C 
ATOM    342  O   LEU A   5       7.390 -23.741 -12.881  0.00  0.00    +0.000 OA
ENDBRANCH 336 341
ENDBRANCH 333 334
BRANCH 333 344
ATOM    343  C   UNK A   3      11.032 -27.287 -15.596  0.00  0.00    +0.000 C 
ATOM    344  N   UNK A   4      10.195 -28.299 -15.364  0.00  0.00    +0.000 N 
ATOM    345  H   UNK A   4      10.580 -29.230 -15.107  0.00  0.00    +0.000 HD
ATOM    346  O   UNK A   3      10.668 -26.107 -15.838  0.00  0.00    +0.000 OA
BRANCH 343 347
ATOM    347  C   UNK A   3      12.496 -27.637 -15.595  0.00  0.00    +0.000 C 
BRANCH 347 350
ATOM    348  C   LEU A   2      13.262 -29.206 -13.888  0.00  0.00    +0.000 C 
ATOM    349  O   LEU A   2      13.344 -28.315 -13.025  0.00  0.00    +0.000 OA
ATOM    350  N   UNK A   3      12.813 -29.004 -15.128  0.00  0.00    +0.000 N 
ATOM    351  H   UNK A   3      12.685 -29.812 -15.770  0.00  0.00    +0.000 HD
BRANCH 348 352
ATOM    352  CA  LEU A   2      13.654 -30.628 -13.550  0.00  0.00    +0.000 C 
BRANCH 352 354
ATOM    353  C   SER A   1      15.463 -31.510 -12.098  0.00  0.00    +0.000 C 
ATOM    354  N   LEU A   2      14.515 -30.599 -12.361  0.00  0.00    +0.000 N 
ATOM    355  H   LEU A   2      14.381 -29.824 -11.681  0.00  0.00    +0.000 HD
ATOM    356  O   SER A   1      15.711 -32.461 -12.820  0.00  0.00    +0.000 OA
BRANCH 353 361
ATOM    357  N   SER A   1      16.074 -29.953 -10.251  0.00  0.00    +0.000 NA
ATOM    358  CD  SER A   1      15.062 -29.976  -9.177  0.00  0.00    +0.000 C 
ATOM    359  CG  SER A   1      14.661 -31.449  -9.076  0.00  0.00    +0.000 C 
ATOM    360  CB  SER A   1      15.766 -32.253  -9.725  0.00  0.00    +0.000 C 
ATOM    361  CA  SER A   1      16.277 -31.297 -10.841  0.00  0.00    +0.000 C 
ENDBRANCH 353 361
ENDBRANCH 352 354
BRANCH 352 362
ATOM    362  CB  LEU A   2      12.352 -31.368 -13.278  0.00  0.00    +0.000 C 
BRANCH 362 363
ATOM    363  CG  LEU A   2      12.496 -32.860 -13.153  0.00  0.00    +0.000 C 
BRANCH 363 364
ATOM    364  SD  LEU A   2      10.877 -33.584 -12.712  0.00  0.00    +0.000 S 
ATOM    365  CE  LEU A   2      11.474 -35.228 -12.310  0.00  0.00    +0.000 C 
ENDBRANCH 363 364
ENDBRANCH 362 363
ENDBRANCH 352 362
ENDBRANCH 348 352
ENDBRANCH 347 350
BRANCH 347 366
ATOM    366  C   UNK A   3      13.001 -27.495 -17.021  0.00  0.00    +0.000 C 
BRANCH 366 367
ATOM    367  C   UNK A   3      14.453 -27.885 -17.126  0.00  0.00    +0.000 C 
ATOM    368  O   UNK A   3      15.324 -27.250 -16.501  0.00  0.00    +0.000 OA
ATOM    369  N   UNK A   3      14.737 -28.959 -17.871  0.00  0.00    +0.000 N 
ATOM    370  H   UNK A   3      15.718 -29.295 -17.946  0.00  0.00    +0.000 HD
ATOM    371  H   UNK A   3      13.977 -29.458 -18.375  0.00  0.00    +0.000 HD
ENDBRANCH 366 367
ENDBRANCH 347 366
ENDBRANCH 343 347
ENDBRANCH 333 344
ENDBRANCH 332 333
ENDBRANCH 331 332
ENDBRANCH   1 331
TORSDOF 154
REMARK  Name = ../refined-set-2016/4hws/4hws_pocket.pdb
REMARK  266 active torsions:
REMARK  status: ('A' for Active; 'I' for Inactive)
REMARK    1  A    between atoms: _1  and  _3
REMARK    2  A    between atoms: _3  and  _4
REMARK    3  A    between atoms: _6  and  _8
REMARK    4  A    between atoms: _8  and  _9
REMARK    5  A    between atoms: _8  and  _11
REMARK    6  A    between atoms: _14  and  _16
REMARK    7  A    between atoms: _16  and  _17
REMARK    8  A    between atoms: _16  and  _19
REMARK    9  A    between atoms: _19  and  _20
REMARK   10  A    between atoms: _25  and  _27
REMARK   11  A    between atoms: _27  and  _28
REMARK   12  A    between atoms: _27  and  _30
REMARK   13  A    between atoms: _30  and  _31
REMARK   14  A    between atoms: _36  and  _37
REMARK   15  A    between atoms: _40  and  _41
REMARK   16  A    between atoms: _46  and  _48
REMARK   17  A    between atoms: _48  and  _49
REMARK   18  A    between atoms: _48  and  _51
REMARK   19  A    between atoms: _51  and  _52
REMARK   20  A    between atoms: _52  and  _53
REMARK   21  A    between atoms: _55  and  _57
REMARK   22  A    between atoms: _57  and  _58
REMARK   23  A    between atoms: _57  and  _60
REMARK   24  A    between atoms: _60  and  _61
REMARK   25  A    between atoms: _66  and  _68
REMARK   26  A    between atoms: _68  and  _69
REMARK   27  A    between atoms: _68  and  _71
REMARK   28  A    between atoms: _71  and  _72
REMARK   29  A    between atoms: _72  and  ZN_650
REMARK   30  A    between atoms: _74  and  _75
REMARK   31  A    between atoms: _80  and  _82
REMARK   32  A    between atoms: _82  and  _83
REMARK   33  A    between atoms: _82  and  _85
REMARK   34  A    between atoms: _85  and  _86
REMARK   35  A    between atoms: _91  and  _93
REMARK   36  A    between atoms: _93  and  _94
REMARK   37  A    between atoms: _93  and  _96
REMARK   38  A    between atoms: _98  and  _100
REMARK   39  A    between atoms: _100  and  _101
REMARK   40  A    between atoms: _100  and  _103
REMARK   41  A    between atoms: _103  and  _104
REMARK   42  A    between atoms: _109  and  _111
REMARK   43  A    between atoms: _111  and  _112
REMARK   44  A    between atoms: _111  and  _114
REMARK   45  A    between atoms: _114  and  _115
REMARK   46  A    between atoms: _115  and  _116
REMARK   47  A    between atoms: _116  and  _117
REMARK   48  A    between atoms: _126  and  _128
REMARK   49  A    between atoms: _128  and  _129
REMARK   50  A    between atoms: _128  and  _131
REMARK   51  A    between atoms: _131  and  _132
REMARK   52  A    between atoms: _137  and  _139
REMARK   53  A    between atoms: _139  and  _140
REMARK   54  A    between atoms: _139  and  _142
REMARK   55  A    between atoms: _142  and  _143
REMARK   56  A    between atoms: _143  and  _144
REMARK   57  A    between atoms: _147  and  _149
REMARK   58  A    between atoms: _149  and  _150
REMARK   59  A    between atoms: _149  and  _152
REMARK   60  A    between atoms: _152  and  _153
REMARK   61  A    between atoms: _155  and  _157
REMARK   62  A    between atoms: _157  and  _158
REMARK   63  A    between atoms: _157  and  _160
REMARK   64  A    between atoms: _160  and  _161
REMARK   65  A    between atoms: _164  and  _166
REMARK   66  A    between atoms: _166  and  _167
REMARK   67  A    between atoms: _166  and  _169
REMARK   68  A    between atoms: _169  and  _170
REMARK   69  A    between atoms: _175  and  _177
REMARK   70  A    between atoms: _177  and  _178
REMARK   71  A    between atoms: _180  and  _182
REMARK   72  A    between atoms: _182  and  _183
REMARK   73  A    between atoms: _182  and  _185
REMARK   74  A    between atoms: _185  and  _186
REMARK   75  A    between atoms: _189  and  _191
REMARK   76  A    between atoms: _191  and  _192
REMARK   77  A    between atoms: _191  and  _194
REMARK   78  A    between atoms: _194  and  _195
REMARK   79  A    between atoms: _195  and  _196
REMARK   80  A    between atoms: _198  and  _200
REMARK   81  A    between atoms: _200  and  _201
REMARK   82  A    between atoms: _200  and  _203
REMARK   83  A    between atoms: _203  and  _204
REMARK   84  A    between atoms: _204  and  _205
REMARK   85  A    between atoms: _205  and  _206
REMARK   86  A    between atoms: _215  and  _217
REMARK   87  A    between atoms: _217  and  _218
REMARK   88  A    between atoms: _217  and  _220
REMARK   89  A    between atoms: _223  and  _225
REMARK   90  A    between atoms: _225  and  _226
REMARK   91  A    between atoms: _225  and  _228
REMARK   92  A    between atoms: _228  and  _229
REMARK   93  A    between atoms: _229  and  _230
REMARK   94  A    between atoms: _230  and  _231
REMARK   95  A    between atoms: _240  and  _242
REMARK   96  A    between atoms: _242  and  _243
REMARK   97  A    between atoms: _245  and  _247
REMARK   98  A    between atoms: _247  and  _248
REMARK   99  A    between atoms: _247  and  _250
REMARK  100  A    between atoms: _250  and  _251
REMARK  101  A    between atoms: _257  and  _259
REMARK  102  A    between atoms: _259  and  _260
REMARK  103  A    between atoms: _259  and  _262
REMARK  104  A    between atoms: _262  and  _263
REMARK  105  A    between atoms: _266  and  _268
REMARK  106  A    between atoms: _268  and  _269
REMARK  107  A    between atoms: _268  and  _271
REMARK  108  A    between atoms: _271  and  _272
REMARK  109  A    between atoms: _272  and  _273
REMARK  110  A    between atoms: _278  and  _280
REMARK  111  A    between atoms: _280  and  _281
REMARK  112  A    between atoms: _280  and  _283
REMARK  113  A    between atoms: _283  and  _284
REMARK  114  A    between atoms: _287  and  _289
REMARK  115  A    between atoms: _289  and  _290
REMARK  116  A    between atoms: _289  and  _292
REMARK  117  A    between atoms: _292  and  _293
REMARK  118  A    between atoms: _296  and  _298
REMARK  119  A    between atoms: _298  and  _299
REMARK  120  A    between atoms: _302  and  _304
REMARK  121  A    between atoms: _304  and  _305
REMARK  122  A    between atoms: _304  and  _307
REMARK  123  A    between atoms: _307  and  _308
REMARK  124  A    between atoms: _312  and  ZN_650
REMARK  125  A    between atoms: _313  and  _315
REMARK  126  A    between atoms: _315  and  _316
REMARK  127  A    between atoms: _315  and  _318
REMARK  128  A    between atoms: _318  and  _319
REMARK  129  A    between atoms: _322  and  _324
REMARK  130  A    between atoms: _324  and  _325
REMARK  131  A    between atoms: _324  and  _327
REMARK  132  A    between atoms: _327  and  _328
REMARK  133  A    between atoms: _330  and  _332
REMARK  134  A    between atoms: _332  and  _333
REMARK  135  A    between atoms: _332  and  _335
REMARK  136  A    between atoms: _335  and  _336
REMARK  137  A    between atoms: _336  and  _337
REMARK  138  A    between atoms: _340  and  _342
REMARK  139  A    between atoms: _342  and  _343
REMARK  140  A    between atoms: _345  and  _347
REMARK  141  A    between atoms: _347  and  _348
REMARK  142  A    between atoms: _351  and  _353
REMARK  143  A    between atoms: _353  and  _354
REMARK  144  A    between atoms: _353  and  _356
REMARK  145  A    between atoms: _356  and  _357
REMARK  146  A    between atoms: _363  and  _365
REMARK  147  A    between atoms: _365  and  _366
REMARK  148  A    between atoms: _365  and  _368
REMARK  149  A    between atoms: _368  and  _369
REMARK  150  A    between atoms: _374  and  _375
REMARK  151  A    between atoms: _377  and  _379
REMARK  152  A    between atoms: _379  and  _380
REMARK  153  A    between atoms: _379  and  _382
REMARK  154  A    between atoms: _382  and  _383
REMARK  155  A    between atoms: _383  and  _384
REMARK  156  A    between atoms: _384  and  _385
REMARK  157  A    between atoms: _385  and  _386
REMARK  158  A    between atoms: _390  and  _392
REMARK  159  A    between atoms: _392  and  _393
REMARK  160  A    between atoms: _392  and  _395
REMARK  161  A    between atoms: _395  and  _396
REMARK  162  A    between atoms: _399  and  _401
REMARK  163  A    between atoms: _401  and  _402
REMARK  164  A    between atoms: _401  and  _404
REMARK  165  A    between atoms: _404  and  _405
REMARK  166  A    between atoms: _405  and  _406
REMARK  167  A    between atoms: _409  and  _411
REMARK  168  A    between atoms: _411  and  _412
REMARK  169  A    between atoms: _411  and  _414
REMARK  170  A    between atoms: _414  and  _415
REMARK  171  A    between atoms: _425  and  _427
REMARK  172  A    between atoms: _427  and  _428
REMARK  173  A    between atoms: _427  and  _430
REMARK  174  A    between atoms: _430  and  _431
REMARK  175  A    between atoms: _431  and  _432
REMARK  176  A    between atoms: _437  and  _439
REMARK  177  A    between atoms: _439  and  _440
REMARK  178  A    between atoms: _439  and  _442
REMARK  179  A    between atoms: _444  and  _446
REMARK  180  A    between atoms: _446  and  _447
REMARK  181  A    between atoms: _449  and  _451
REMARK  182  A    between atoms: _451  and  _452
REMARK  183  A    between atoms: _451  and  _454
REMARK  184  A    between atoms: _454  and  _455
REMARK  185  A    between atoms: _458  and  _460
REMARK  186  A    between atoms: _460  and  _461
REMARK  187  A    between atoms: _460  and  _463
REMARK  188  A    between atoms: _466  and  _468
REMARK  189  A    between atoms: _468  and  _469
REMARK  190  A    between atoms: _468  and  _471
REMARK  191  A    between atoms: _471  and  _472
REMARK  192  A    between atoms: _472  and  _473
REMARK  193  A    between atoms: _478  and  _480
REMARK  194  A    between atoms: _480  and  _481
REMARK  195  A    between atoms: _480  and  _483
REMARK  196  A    between atoms: _483  and  _484
REMARK  197  A    between atoms: _487  and  _489
REMARK  198  A    between atoms: _489  and  _490
REMARK  199  A    between atoms: _489  and  _492
REMARK  200  A    between atoms: _492  and  _493
REMARK  201  A    between atoms: _496  and  _498
REMARK  202  A    between atoms: _498  and  _499
REMARK  203  A    between atoms: _498  and  _501
REMARK  204  A    between atoms: _501  and  _502
REMARK  205  A    between atoms: _502  and  _503
REMARK  206  A    between atoms: _505  and  _507
REMARK  207  A    between atoms: _507  and  _508
REMARK  208  A    between atoms: _507  and  _510
REMARK  209  A    between atoms: _510  and  _511
REMARK  210  A    between atoms: _514  and  _516
REMARK  211  A    between atoms: _516  and  _517
REMARK  212  A    between atoms: _516  and  _519
REMARK  213  A    between atoms: _519  and  _520
REMARK  214  A    between atoms: _521  and  ZN_650
REMARK  215  A    between atoms: _525  and  _527
REMARK  216  A    between atoms: _527  and  _528
REMARK  217  A    between atoms: _527  and  _530
REMARK  218  A    between atoms: _530  and  _531
REMARK  219  A    between atoms: _531  and  _532
REMARK  220  A    between atoms: _532  and  _533
REMARK  221  A    between atoms: _542  and  _544
REMARK  222  A    between atoms: _544  and  _545
REMARK  223  A    between atoms: _548  and  _550
REMARK  224  A    between atoms: _550  and  _551
REMARK  225  A    between atoms: _550  and  _553
REMARK  226  A    between atoms: _553  and  _554
REMARK  227  A    between atoms: _557  and  _559
REMARK  228  A    between atoms: _559  and  _560
REMARK  229  A    between atoms: _559  and  _562
REMARK  230  A    between atoms: _562  and  _563
REMARK  231  A    between atoms: _566  and  _568
REMARK  232  A    between atoms: _568  and  _569
REMARK  233  A    between atoms: _571  and  _573
REMARK  234  A    between atoms: _573  and  _574
REMARK  235  A    between atoms: _573  and  _576
REMARK  236  A    between atoms: _576  and  _577
REMARK  237  A    between atoms: _579  and  _581
REMARK  238  A    between atoms: _581  and  _582
REMARK  239  A    between atoms: _581  and  _584
REMARK  240  A    between atoms: _584  and  _585
REMARK  241  A    between atoms: _585  and  _586
REMARK  242  A    between atoms: _588  and  _590
REMARK  243  A    between atoms: _590  and  _591
REMARK  244  A    between atoms: _590  and  _593
REMARK  245  A    between atoms: _593  and  _594
REMARK  246  A    between atoms: _594  and  _595
REMARK  247  A    between atoms: _598  and  _600
REMARK  248  A    between atoms: _600  and  _601
REMARK  249  A    between atoms: _600  and  _603
REMARK  250  A    between atoms: _603  and  _604
REMARK  251  A    between atoms: _604  and  _605
REMARK  252  A    between atoms: _605  and  _606
REMARK  253  A    between atoms: _615  and  _617
REMARK  254  A    between atoms: _617  and  _618
REMARK  255  A    between atoms: _617  and  _620
REMARK  256  A    between atoms: _620  and  _621
REMARK  257  A    between atoms: _627  and  _629
REMARK  258  A    between atoms: _629  and  _630
REMARK  259  A    between atoms: _629  and  _632
REMARK  260  A    between atoms: _632  and  _633
REMARK  261  A    between atoms: _636  and  _638
REMARK  262  A    between atoms: _638  and  _639
REMARK  263  A    between atoms: _641  and  _643
REMARK  264  A    between atoms: _643  and  _644
REMARK  265  A    between atoms: _643  and  _646
REMARK  266  A    between atoms: _646  and  _647
REMARK                            x       y       z     vdW  Elec       q    Type
REMARK                         _______ _______ _______ _____ _____    ______ ____
ROOT
ATOM      1  CB  HIS A   1       7.924 -24.661 -18.105  0.00  0.00    +0.072 C 
ENDROOT
BRANCH   1   2
ATOM      2  CG  HIS A   1       9.243 -24.856 -18.797  0.00  0.00    +0.082 A 
ATOM      3  CD2 HIS A   1      10.438 -24.165 -18.632  0.00  0.00    +0.115 A 
ATOM      4  NE2 HIS A   1      11.351 -24.730 -19.447  0.00  0.00    -0.221 NA
ATOM      5  CE1 HIS A   1      10.778 -25.736 -20.126  0.00  0.00    +0.199 A 
ATOM      6  ND1 HIS A   1       9.486 -25.834 -19.744  0.00  0.00    -0.227 NA
ENDBRANCH   1   2
BRANCH   1   7
ATOM      7  CA  HIS A   1       7.936 -23.428 -17.213  0.00  0.00    +0.139 C 
BRANCH   7   8
ATOM      8  N   HIS A   1       8.787 -23.656 -16.018  0.00  0.00    -0.239 NA
ATOM      9  H   HIS A   1       9.206 -24.595 -15.863  0.00  0.00    +0.142 HD
ENDBRANCH   7   8
BRANCH   7  10
ATOM     10  C   HIS A   1       6.539 -23.055 -16.824  0.00  0.00    +0.224 C 
ATOM     11  O   HIS A   1       5.939 -22.180 -17.438  0.00  0.00    -0.287 OA
ENDBRANCH   7  10
ENDBRANCH   1   7
TORSDOF 4
REMARK  Name = ../refined-set-2016/4hws/4hws_pocket.pdb
REMARK  266 active torsions:
REMARK  status: ('A' for Active; 'I' for Inactive)
REMARK    1  A    between atoms: _1  and  _3
REMARK    2  A    between atoms: _3  and  _4
REMARK    3  A    between atoms: _6  and  _8
REMARK    4  A    between atoms: _8  and  _9
REMARK    5  A    between atoms: _8  and  _11
REMARK    6  A    between atoms: _14  and  _16
REMARK    7  A    between atoms: _16  and  _17
REMARK    8  A    between atoms: _16  and  _19
REMARK    9  A    between atoms: _19  and  _20
REMARK   10  A    between atoms: _25  and  _27
REMARK   11  A    between atoms: _27  and  _28
REMARK   12  A    between atoms: _27  and  _30
REMARK   13  A    between atoms: _30  and  _31
REMARK   14  A    between atoms: _36  and  _37
REMARK   15  A    between atoms: _40  and  _41
REMARK   16  A    between atoms: _46  and  _48
REMARK   17  A    between atoms: _48  and  _49
REMARK   18  A    between atoms: _48  and  _51
REMARK   19  A    between atoms: _51  and  _52
REMARK   20  A    between atoms: _52  and  _53
REMARK   21  A    between atoms: _55  and  _57
REMARK   22  A    between atoms: _57  and  _58
REMARK   23  A    between atoms: _57  and  _60
REMARK   24  A    between atoms: _60  and  _61
REMARK   25  A    between atoms: _66  and  _68
REMARK   26  A    between atoms: _68  and  _69
REMARK   27  A    between atoms: _68  and  _71
REMARK   28  A    between atoms: _71  and  _72
REMARK   29  A    between atoms: _72  and  ZN_650
REMARK   30  A    between atoms: _74  and  _75
REMARK   31  A    between atoms: _80  and  _82
REMARK   32  A    between atoms: _82  and  _83
REMARK   33  A    between atoms: _82  and  _85
REMARK   34  A    between atoms: _85  and  _86
REMARK   35  A    between atoms: _91  and  _93
REMARK   36  A    between atoms: _93  and  _94
REMARK   37  A    between atoms: _93  and  _96
REMARK   38  A    between atoms: _98  and  _100
REMARK   39  A    between atoms: _100  and  _101
REMARK   40  A    between atoms: _100  and  _103
REMARK   41  A    between atoms: _103  and  _104
REMARK   42  A    between atoms: _109  and  _111
REMARK   43  A    between atoms: _111  and  _112
REMARK   44  A    between atoms: _111  and  _114
REMARK   45  A    between atoms: _114  and  _115
REMARK   46  A    between atoms: _115  and  _116
REMARK   47  A    between atoms: _116  and  _117
REMARK   48  A    between atoms: _126  and  _128
REMARK   49  A    between atoms: _128  and  _129
REMARK   50  A    between atoms: _128  and  _131
REMARK   51  A    between atoms: _131  and  _132
REMARK   52  A    between atoms: _137  and  _139
REMARK   53  A    between atoms: _139  and  _140
REMARK   54  A    between atoms: _139  and  _142
REMARK   55  A    between atoms: _142  and  _143
REMARK   56  A    between atoms: _143  and  _144
REMARK   57  A    between atoms: _147  and  _149
REMARK   58  A    between atoms: _149  and  _150
REMARK   59  A    between atoms: _149  and  _152
REMARK   60  A    between atoms: _152  and  _153
REMARK   61  A    between atoms: _155  and  _157
REMARK   62  A    between atoms: _157  and  _158
REMARK   63  A    between atoms: _157  and  _160
REMARK   64  A    between atoms: _160  and  _161
REMARK   65  A    between atoms: _164  and  _166
REMARK   66  A    between atoms: _166  and  _167
REMARK   67  A    between atoms: _166  and  _169
REMARK   68  A    between atoms: _169  and  _170
REMARK   69  A    between atoms: _175  and  _177
REMARK   70  A    between atoms: _177  and  _178
REMARK   71  A    between atoms: _180  and  _182
REMARK   72  A    between atoms: _182  and  _183
REMARK   73  A    between atoms: _182  and  _185
REMARK   74  A    between atoms: _185  and  _186
REMARK   75  A    between atoms: _189  and  _191
REMARK   76  A    between atoms: _191  and  _192
REMARK   77  A    between atoms: _191  and  _194
REMARK   78  A    between atoms: _194  and  _195
REMARK   79  A    between atoms: _195  and  _196
REMARK   80  A    between atoms: _198  and  _200
REMARK   81  A    between atoms: _200  and  _201
REMARK   82  A    between atoms: _200  and  _203
REMARK   83  A    between atoms: _203  and  _204
REMARK   84  A    between atoms: _204  and  _205
REMARK   85  A    between atoms: _205  and  _206
REMARK   86  A    between atoms: _215  and  _217
REMARK   87  A    between atoms: _217  and  _218
REMARK   88  A    between atoms: _217  and  _220
REMARK   89  A    between atoms: _223  and  _225
REMARK   90  A    between atoms: _225  and  _226
REMARK   91  A    between atoms: _225  and  _228
REMARK   92  A    between atoms: _228  and  _229
REMARK   93  A    between atoms: _229  and  _230
REMARK   94  A    between atoms: _230  and  _231
REMARK   95  A    between atoms: _240  and  _242
REMARK   96  A    between atoms: _242  and  _243
REMARK   97  A    between atoms: _245  and  _247
REMARK   98  A    between atoms: _247  and  _248
REMARK   99  A    between atoms: _247  and  _250
REMARK  100  A    between atoms: _250  and  _251
REMARK  101  A    between atoms: _257  and  _259
REMARK  102  A    between atoms: _259  and  _260
REMARK  103  A    between atoms: _259  and  _262
REMARK  104  A    between atoms: _262  and  _263
REMARK  105  A    between atoms: _266  and  _268
REMARK  106  A    between atoms: _268  and  _269
REMARK  107  A    between atoms: _268  and  _271
REMARK  108  A    between atoms: _271  and  _272
REMARK  109  A    between atoms: _272  and  _273
REMARK  110  A    between atoms: _278  and  _280
REMARK  111  A    between atoms: _280  and  _281
REMARK  112  A    between atoms: _280  and  _283
REMARK  113  A    between atoms: _283  and  _284
REMARK  114  A    between atoms: _287  and  _289
REMARK  115  A    between atoms: _289  and  _290
REMARK  116  A    between atoms: _289  and  _292
REMARK  117  A    between atoms: _292  and  _293
REMARK  118  A    between atoms: _296  and  _298
REMARK  119  A    between atoms: _298  and  _299
REMARK  120  A    between atoms: _302  and  _304
REMARK  121  A    between atoms: _304  and  _305
REMARK  122  A    between atoms: _304  and  _307
REMARK  123  A    between atoms: _307  and  _308
REMARK  124  A    between atoms: _312  and  ZN_650
REMARK  125  A    between atoms: _313  and  _315
REMARK  126  A    between atoms: _315  and  _316
REMARK  127  A    between atoms: _315  and  _318
REMARK  128  A    between atoms: _318  and  _319
REMARK  129  A    between atoms: _322  and  _324
REMARK  130  A    between atoms: _324  and  _325
REMARK  131  A    between atoms: _324  and  _327
REMARK  132  A    between atoms: _327  and  _328
REMARK  133  A    between atoms: _330  and  _332
REMARK  134  A    between atoms: _332  and  _333
REMARK  135  A    between atoms: _332  and  _335
REMARK  136  A    between atoms: _335  and  _336
REMARK  137  A    between atoms: _336  and  _337
REMARK  138  A    between atoms: _340  and  _342
REMARK  139  A    between atoms: _342  and  _343
REMARK  140  A    between atoms: _345  and  _347
REMARK  141  A    between atoms: _347  and  _348
REMARK  142  A    between atoms: _351  and  _353
REMARK  143  A    between atoms: _353  and  _354
REMARK  144  A    between atoms: _353  and  _356
REMARK  145  A    between atoms: _356  and  _357
REMARK  146  A    between atoms: _363  and  _365
REMARK  147  A    between atoms: _365  and  _366
REMARK  148  A    between atoms: _365  and  _368
REMARK  149  A    between atoms: _368  and  _369
REMARK  150  A    between atoms: _374  and  _375
REMARK  151  A    between atoms: _377  and  _379
REMARK  152  A    between atoms: _379  and  _380
REMARK  153  A    between atoms: _379  and  _382
REMARK  154  A    between atoms: _382  and  _383
REMARK  155  A    between atoms: _383  and  _384
REMARK  156  A    between atoms: _384  and  _385
REMARK  157  A    between atoms: _385  and  _386
REMARK  158  A    between atoms: _390  and  _392
REMARK  159  A    between atoms: _392  and  _393
REMARK  160  A    between atoms: _392  and  _395
REMARK  161  A    between atoms: _395  and  _396
REMARK  162  A    between atoms: _399  and  _401
REMARK  163  A    between atoms: _401  and  _402
REMARK  164  A    between atoms: _401  and  _404
REMARK  165  A    between atoms: _404  and  _405
REMARK  166  A    between atoms: _405  and  _406
REMARK  167  A    between atoms: _409  and  _411
REMARK  168  A    between atoms: _411  and  _412
REMARK  169  A    between atoms: _411  and  _414
REMARK  170  A    between atoms: _414  and  _415
REMARK  171  A    between atoms: _425  and  _427
REMARK  172  A    between atoms: _427  and  _428
REMARK  173  A    between atoms: _427  and  _430
REMARK  174  A    between atoms: _430  and  _431
REMARK  175  A    between atoms: _431  and  _432
REMARK  176  A    between atoms: _437  and  _439
REMARK  177  A    between atoms: _439  and  _440
REMARK  178  A    between atoms: _439  and  _442
REMARK  179  A    between atoms: _444  and  _446
REMARK  180  A    between atoms: _446  and  _447
REMARK  181  A    between atoms: _449  and  _451
REMARK  182  A    between atoms: _451  and  _452
REMARK  183  A    between atoms: _451  and  _454
REMARK  184  A    between atoms: _454  and  _455
REMARK  185  A    between atoms: _458  and  _460
REMARK  186  A    between atoms: _460  and  _461
REMARK  187  A    between atoms: _460  and  _463
REMARK  188  A    between atoms: _466  and  _468
REMARK  189  A    between atoms: _468  and  _469
REMARK  190  A    between atoms: _468  and  _471
REMARK  191  A    between atoms: _471  and  _472
REMARK  192  A    between atoms: _472  and  _473
REMARK  193  A    between atoms: _478  and  _480
REMARK  194  A    between atoms: _480  and  _481
REMARK  195  A    between atoms: _480  and  _483
REMARK  196  A    between atoms: _483  and  _484
REMARK  197  A    between atoms: _487  and  _489
REMARK  198  A    between atoms: _489  and  _490
REMARK  199  A    between atoms: _489  and  _492
REMARK  200  A    between atoms: _492  and  _493
REMARK  201  A    between atoms: _496  and  _498
REMARK  202  A    between atoms: _498  and  _499
REMARK  203  A    between atoms: _498  and  _501
REMARK  204  A    between atoms: _501  and  _502
REMARK  205  A    between atoms: _502  and  _503
REMARK  206  A    between atoms: _505  and  _507
REMARK  207  A    between atoms: _507  and  _508
REMARK  208  A    between atoms: _507  and  _510
REMARK  209  A    between atoms: _510  and  _511
REMARK  210  A    between atoms: _514  and  _516
REMARK  211  A    between atoms: _516  and  _517
REMARK  212  A    between atoms: _516  and  _519
REMARK  213  A    between atoms: _519  and  _520
REMARK  214  A    between atoms: _521  and  ZN_650
REMARK  215  A    between atoms: _525  and  _527
REMARK  216  A    between atoms: _527  and  _528
REMARK  217  A    between atoms: _527  and  _530
REMARK  218  A    between atoms: _530  and  _531
REMARK  219  A    between atoms: _531  and  _532
REMARK  220  A    between atoms: _532  and  _533
REMARK  221  A    between atoms: _542  and  _544
REMARK  222  A    between atoms: _544  and  _545
REMARK  223  A    between atoms: _548  and  _550
REMARK  224  A    between atoms: _550  and  _551
REMARK  225  A    between atoms: _550  and  _553
REMARK  226  A    between atoms: _553  and  _554
REMARK  227  A    between atoms: _557  and  _559
REMARK  228  A    between atoms: _559  and  _560
REMARK  229  A    between atoms: _559  and  _562
REMARK  230  A    between atoms: _562  and  _563
REMARK  231  A    between atoms: _566  and  _568
REMARK  232  A    between atoms: _568  and  _569
REMARK  233  A    between atoms: _571  and  _573
REMARK  234  A    between atoms: _573  and  _574
REMARK  235  A    between atoms: _573  and  _576
REMARK  236  A    between atoms: _576  and  _577
REMARK  237  A    between atoms: _579  and  _581
REMARK  238  A    between atoms: _581  and  _582
REMARK  239  A    between atoms: _581  and  _584
REMARK  240  A    between atoms: _584  and  _585
REMARK  241  A    between atoms: _585  and  _586
REMARK  242  A    between atoms: _588  and  _590
REMARK  243  A    between atoms: _590  and  _591
REMARK  244  A    between atoms: _590  and  _593
REMARK  245  A    between atoms: _593  and  _594
REMARK  246  A    between atoms: _594  and  _595
REMARK  247  A    between atoms: _598  and  _600
REMARK  248  A    between atoms: _600  and  _601
REMARK  249  A    between atoms: _600  and  _603
REMARK  250  A    between atoms: _603  and  _604
REMARK  251  A    between atoms: _604  and  _605
REMARK  252  A    between atoms: _605  and  _606
REMARK  253  A    between atoms: _615  and  _617
REMARK  254  A    between atoms: _617  and  _618
REMARK  255  A    between atoms: _617  and  _620
REMARK  256  A    between atoms: _620  and  _621
REMARK  257  A    between atoms: _627  and  _629
REMARK  258  A    between atoms: _629  and  _630
REMARK  259  A    between atoms: _629  and  _632
REMARK  260  A    between atoms: _632  and  _633
REMARK  261  A    between atoms: _636  and  _638
REMARK  262  A    between atoms: _638  and  _639
REMARK  263  A    between atoms: _641  and  _643
REMARK  264  A    between atoms: _643  and  _644
REMARK  265  A    between atoms: _643  and  _646
REMARK  266  A    between atoms: _646  and  _647
REMARK                            x       y       z     vdW  Elec       q    Type
REMARK                         _______ _______ _______ _____ _____    ______ ____
ROOT
ATOM      1  CA  ARG A   3      20.330 -34.444  -9.313  0.00  0.00    +0.149 C 
ENDROOT
BRANCH   1   4
ATOM      2  C   HIS A   2      20.465 -32.157 -10.173  0.00  0.00    +0.241 C 
ATOM      3  O   HIS A   2      19.383 -31.827  -9.657  0.00  0.00    -0.273 OA
ATOM      4  N   ARG A   3      20.959 -33.391 -10.130  0.00  0.00    -0.297 N 
ATOM      5  H   ARG A   3      21.808 -33.618 -10.685  0.00  0.00    +0.150 HD
BRANCH   2   6
ATOM      6  CA  HIS A   2      21.264 -31.191 -10.962  0.00  0.00    +0.155 C 
BRANCH   6   8
ATOM      7  C   CYS A   1      20.603 -30.377 -13.185  0.00  0.00    +0.239 C 
ATOM      8  N   HIS A   2      20.363 -30.480 -11.873  0.00  0.00    -0.297 N 
ATOM      9  H   HIS A   2      19.505 -30.039 -11.485  0.00  0.00    +0.150 HD
ATOM     10  O   CYS A   1      21.694 -30.683 -13.707  0.00  0.00    -0.274 OA
BRANCH   7  11
ATOM     11  CA  CYS A   1      19.472 -29.806 -14.041  0.00  0.00    +0.156 C 
BRANCH  11  12
ATOM     12  CB  CYS A   1      18.599 -30.976 -14.478  0.00  0.00    +0.095 C 
ATOM     13  SG  CYS A   1      17.087 -30.510 -15.343  0.00  0.00    -0.080 S 
ENDBRANCH  11  12
BRANCH  11  14
ATOM     14  N   CYS A   1      19.980 -29.133 -15.219  0.00  0.00    -0.237 NA
ATOM     15  H   CYS A   1      20.433 -29.707 -15.958  0.00  0.00    +0.142 HD
ENDBRANCH  11  14
ENDBRANCH   7  11
ENDBRANCH   6   8
BRANCH   6  16
ATOM     16  CB  HIS A   2      21.989 -30.193 -10.052  0.00  0.00    +0.076 C 
BRANCH  16  17
ATOM     17  CG  HIS A   2      22.941 -29.317 -10.821  0.00  0.00    +0.082 A 
ATOM     18  CD2 HIS A   2      24.312 -29.439 -11.047  0.00  0.00    +0.115 A 
ATOM     19  NE2 HIS A   2      24.702 -28.388 -11.819  0.00  0.00    -0.221 NA
ATOM     20  CE1 HIS A   2      23.608 -27.640 -12.112  0.00  0.00    +0.199 A 
ATOM     21  ND1 HIS A   2      22.526 -28.201 -11.480  0.00  0.00    -0.227 NA
ENDBRANCH  16  17
ENDBRANCH   6  16
ENDBRANCH   2   6
ENDBRANCH   1   4
BRANCH   1  22
ATOM     22  C   ARG A   3      21.467 -35.076  -8.554  0.00  0.00    +0.241 C 
ATOM     23  N   ASN A   4      21.262 -35.266  -7.252  0.00  0.00    -0.297 N 
ATOM     24  H   ASN A   4      20.339 -35.027  -6.837  0.00  0.00    +0.150 HD
ATOM     25  O   ARG A   3      22.514 -35.398  -9.145  0.00  0.00    -0.273 OA
BRANCH  23  26
ATOM     26  CA  ASN A   4      22.310 -35.801  -6.408  0.00  0.00    +0.158 C 
BRANCH  26  27
ATOM     27  C   ASN A   4      22.384 -37.309  -6.532  0.00  0.00    +0.241 C 
ATOM     28  O   ASN A   4      22.099 -38.026  -5.579  0.00  0.00    -0.273 OA
ATOM     29  N   GLU A   5      22.746 -37.791  -7.724  0.00  0.00    -0.298 N 
ATOM     30  H   GLU A   5      22.971 -37.124  -8.489  0.00  0.00    +0.150 HD
BRANCH  29  31
ATOM     31  CA  GLU A   5      22.837 -39.231  -7.989  0.00  0.00    +0.137 C 
BRANCH  31  32
ATOM     32  C   GLU A   5      23.916 -39.822  -7.069  0.00  0.00    +0.227 C 
ATOM     33  O   GLU A   5      25.006 -39.235  -6.910  0.00  0.00    -0.286 OA
ENDBRANCH  31  32
BRANCH  31  34
ATOM     34  CB  GLU A   5      23.207 -39.534  -9.464  0.00  0.00    +0.039 C 
BRANCH  34  35
ATOM     35  CG  GLU A   5      22.400 -38.789 -10.548  0.00  0.00    +0.116 C 
BRANCH  35  36
ATOM     36  CD  GLU A   5      21.031 -39.405 -10.833  0.00  0.00    +0.365 C 
ATOM     37  OE2 GLU A   5      20.641 -40.364 -10.141  0.00  0.00    -0.246 OA
ATOM     38  OE1 GLU A   5      20.325 -38.921 -11.757  0.00  0.00    -0.246 OA
ENDBRANCH  35  36
ENDBRANCH  34  35
ENDBRANCH  31  34
ENDBRANCH  29  31
ENDBRANCH  26  27
BRANCH  26  39
ATOM     39  CB  ASN A   4      22.082 -35.333  -4.967  0.00  0.00    +0.114 C 
BRANCH  39  40
ATOM     40  CG  ASN A   4      23.210 -35.728  -4.043  0.00  0.00    +0.222 C 
ATOM     41  ND2 ASN A   4      22.934 -35.705  -2.744  0.00  0.00    -0.329 N 
ATOM     42 HD21 ASN A   4      23.659 -35.987  -2.053  0.00  0.00    +0.145 HD
ATOM     43 HD22 ASN A   4      21.993 -35.405  -2.417  0.00  0.00    +0.145 HD
ATOM     44  OD1 ASN A   4      24.312 -36.076  -4.493  0.00  0.00    -0.275 OA
ENDBRANCH  39  40
ENDBRANCH  26  39
ENDBRANCH  23  26
ENDBRANCH   1  22
BRANCH   1  45
ATOM     45  CB  ARG A   3      19.599 -35.486 -10.185  0.00  0.00    +0.033 C 
BRANCH  45  46
ATOM     46  CG  ARG A   3      18.447 -34.892 -10.962  0.00  0.00    +0.045 C 
BRANCH  46  47
ATOM     47  CD  ARG A   3      17.614 -35.900 -11.695  0.00  0.00    +0.174 C 
BRANCH  47  48
ATOM     48  NE  ARG A   3      16.607 -35.207 -12.515  0.00  0.00    -0.265 N 
ATOM     49  HE  ARG A   3      16.584 -34.168 -12.489  0.00  0.00    +0.259 HD
ATOM     50  CZ  ARG A   3      15.723 -35.837 -13.289  0.00  0.00    +0.342 C 
ATOM     51  NH2 ARG A   3      15.721 -37.193 -13.321  0.00  0.00    -0.292 N 
ATOM     52 HH21 ARG A   3      16.403 -37.728 -12.746  0.00  0.00    +0.255 HD
ATOM     53 HH22 ARG A   3      15.037 -37.698 -13.920  0.00  0.00    +0.255 HD
ATOM     54  NH1 ARG A   3      14.853 -35.132 -14.025  0.00  0.00    -0.292 N 
ATOM     55 HH11 ARG A   3      14.867 -34.093 -13.993  0.00  0.00    +0.255 HD
ATOM     56 HH12 ARG A   3      14.164 -35.624 -14.629  0.00  0.00    +0.255 HD
ENDBRANCH  47  48
ENDBRANCH  46  47
ENDBRANCH  45  46
ENDBRANCH   1  45
TORSDOF 22
REMARK  Name = ../refined-set-2016/4hws/4hws_pocket.pdb
REMARK  266 active torsions:
REMARK  status: ('A' for Active; 'I' for Inactive)
REMARK    1  A    between atoms: _1  and  _3
REMARK    2  A    between atoms: _3  and  _4
REMARK    3  A    between atoms: _6  and  _8
REMARK    4  A    between atoms: _8  and  _9
REMARK    5  A    between atoms: _8  and  _11
REMARK    6  A    between atoms: _14  and  _16
REMARK    7  A    between atoms: _16  and  _17
REMARK    8  A    between atoms: _16  and  _19
REMARK    9  A    between atoms: _19  and  _20
REMARK   10  A    between atoms: _25  and  _27
REMARK   11  A    between atoms: _27  and  _28
REMARK   12  A    between atoms: _27  and  _30
REMARK   13  A    between atoms: _30  and  _31
REMARK   14  A    between atoms: _36  and  _37
REMARK   15  A    between atoms: _40  and  _41
REMARK   16  A    between atoms: _46  and  _48
REMARK   17  A    between atoms: _48  and  _49
REMARK   18  A    between atoms: _48  and  _51
REMARK   19  A    between atoms: _51  and  _52
REMARK   20  A    between atoms: _52  and  _53
REMARK   21  A    between atoms: _55  and  _57
REMARK   22  A    between atoms: _57  and  _58
REMARK   23  A    between atoms: _57  and  _60
REMARK   24  A    between atoms: _60  and  _61
REMARK   25  A    between atoms: _66  and  _68
REMARK   26  A    between atoms: _68  and  _69
REMARK   27  A    between atoms: _68  and  _71
REMARK   28  A    between atoms: _71  and  _72
REMARK   29  A    between atoms: _72  and  ZN_650
REMARK   30  A    between atoms: _74  and  _75
REMARK   31  A    between atoms: _80  and  _82
REMARK   32  A    between atoms: _82  and  _83
REMARK   33  A    between atoms: _82  and  _85
REMARK   34  A    between atoms: _85  and  _86
REMARK   35  A    between atoms: _91  and  _93
REMARK   36  A    between atoms: _93  and  _94
REMARK   37  A    between atoms: _93  and  _96
REMARK   38  A    between atoms: _98  and  _100
REMARK   39  A    between atoms: _100  and  _101
REMARK   40  A    between atoms: _100  and  _103
REMARK   41  A    between atoms: _103  and  _104
REMARK   42  A    between atoms: _109  and  _111
REMARK   43  A    between atoms: _111  and  _112
REMARK   44  A    between atoms: _111  and  _114
REMARK   45  A    between atoms: _114  and  _115
REMARK   46  A    between atoms: _115  and  _116
REMARK   47  A    between atoms: _116  and  _117
REMARK   48  A    between atoms: _126  and  _128
REMARK   49  A    between atoms: _128  and  _129
REMARK   50  A    between atoms: _128  and  _131
REMARK   51  A    between atoms: _131  and  _132
REMARK   52  A    between atoms: _137  and  _139
REMARK   53  A    between atoms: _139  and  _140
REMARK   54  A    between atoms: _139  and  _142
REMARK   55  A    between atoms: _142  and  _143
REMARK   56  A    between atoms: _143  and  _144
REMARK   57  A    between atoms: _147  and  _149
REMARK   58  A    between atoms: _149  and  _150
REMARK   59  A    between atoms: _149  and  _152
REMARK   60  A    between atoms: _152  and  _153
REMARK   61  A    between atoms: _155  and  _157
REMARK   62  A    between atoms: _157  and  _158
REMARK   63  A    between atoms: _157  and  _160
REMARK   64  A    between atoms: _160  and  _161
REMARK   65  A    between atoms: _164  and  _166
REMARK   66  A    between atoms: _166  and  _167
REMARK   67  A    between atoms: _166  and  _169
REMARK   68  A    between atoms: _169  and  _170
REMARK   69  A    between atoms: _175  and  _177
REMARK   70  A    between atoms: _177  and  _178
REMARK   71  A    between atoms: _180  and  _182
REMARK   72  A    between atoms: _182  and  _183
REMARK   73  A    between atoms: _182  and  _185
REMARK   74  A    between atoms: _185  and  _186
REMARK   75  A    between atoms: _189  and  _191
REMARK   76  A    between atoms: _191  and  _192
REMARK   77  A    between atoms: _191  and  _194
REMARK   78  A    between atoms: _194  and  _195
REMARK   79  A    between atoms: _195  and  _196
REMARK   80  A    between atoms: _198  and  _200
REMARK   81  A    between atoms: _200  and  _201
REMARK   82  A    between atoms: _200  and  _203
REMARK   83  A    between atoms: _203  and  _204
REMARK   84  A    between atoms: _204  and  _205
REMARK   85  A    between atoms: _205  and  _206
REMARK   86  A    between atoms: _215  and  _217
REMARK   87  A    between atoms: _217  and  _218
REMARK   88  A    between atoms: _217  and  _220
REMARK   89  A    between atoms: _223  and  _225
REMARK   90  A    between atoms: _225  and  _226
REMARK   91  A    between atoms: _225  and  _228
REMARK   92  A    between atoms: _228  and  _229
REMARK   93  A    between atoms: _229  and  _230
REMARK   94  A    between atoms: _230  and  _231
REMARK   95  A    between atoms: _240  and  _242
REMARK   96  A    between atoms: _242  and  _243
REMARK   97  A    between atoms: _245  and  _247
REMARK   98  A    between atoms: _247  and  _248
REMARK   99  A    between atoms: _247  and  _250
REMARK  100  A    between atoms: _250  and  _251
REMARK  101  A    between atoms: _257  and  _259
REMARK  102  A    between atoms: _259  and  _260
REMARK  103  A    between atoms: _259  and  _262
REMARK  104  A    between atoms: _262  and  _263
REMARK  105  A    between atoms: _266  and  _268
REMARK  106  A    between atoms: _268  and  _269
REMARK  107  A    between atoms: _268  and  _271
REMARK  108  A    between atoms: _271  and  _272
REMARK  109  A    between atoms: _272  and  _273
REMARK  110  A    between atoms: _278  and  _280
REMARK  111  A    between atoms: _280  and  _281
REMARK  112  A    between atoms: _280  and  _283
REMARK  113  A    between atoms: _283  and  _284
REMARK  114  A    between atoms: _287  and  _289
REMARK  115  A    between atoms: _289  and  _290
REMARK  116  A    between atoms: _289  and  _292
REMARK  117  A    between atoms: _292  and  _293
REMARK  118  A    between atoms: _296  and  _298
REMARK  119  A    between atoms: _298  and  _299
REMARK  120  A    between atoms: _302  and  _304
REMARK  121  A    between atoms: _304  and  _305
REMARK  122  A    between atoms: _304  and  _307
REMARK  123  A    between atoms: _307  and  _308
REMARK  124  A    between atoms: _312  and  ZN_650
REMARK  125  A    between atoms: _313  and  _315
REMARK  126  A    between atoms: _315  and  _316
REMARK  127  A    between atoms: _315  and  _318
REMARK  128  A    between atoms: _318  and  _319
REMARK  129  A    between atoms: _322  and  _324
REMARK  130  A    between atoms: _324  and  _325
REMARK  131  A    between atoms: _324  and  _327
REMARK  132  A    between atoms: _327  and  _328
REMARK  133  A    between atoms: _330  and  _332
REMARK  134  A    between atoms: _332  and  _333
REMARK  135  A    between atoms: _332  and  _335
REMARK  136  A    between atoms: _335  and  _336
REMARK  137  A    between atoms: _336  and  _337
REMARK  138  A    between atoms: _340  and  _342
REMARK  139  A    between atoms: _342  and  _343
REMARK  140  A    between atoms: _345  and  _347
REMARK  141  A    between atoms: _347  and  _348
REMARK  142  A    between atoms: _351  and  _353
REMARK  143  A    between atoms: _353  and  _354
REMARK  144  A    between atoms: _353  and  _356
REMARK  145  A    between atoms: _356  and  _357
REMARK  146  A    between atoms: _363  and  _365
REMARK  147  A    between atoms: _365  and  _366
REMARK  148  A    between atoms: _365  and  _368
REMARK  149  A    between atoms: _368  and  _369
REMARK  150  A    between atoms: _374  and  _375
REMARK  151  A    between atoms: _377  and  _379
REMARK  152  A    between atoms: _379  and  _380
REMARK  153  A    between atoms: _379  and  _382
REMARK  154  A    between atoms: _382  and  _383
REMARK  155  A    between atoms: _383  and  _384
REMARK  156  A    between atoms: _384  and  _385
REMARK  157  A    between atoms: _385  and  _386
REMARK  158  A    between atoms: _390  and  _392
REMARK  159  A    between atoms: _392  and  _393
REMARK  160  A    between atoms: _392  and  _395
REMARK  161  A    between atoms: _395  and  _396
REMARK  162  A    between atoms: _399  and  _401
REMARK  163  A    between atoms: _401  and  _402
REMARK  164  A    between atoms: _401  and  _404
REMARK  165  A    between atoms: _404  and  _405
REMARK  166  A    between atoms: _405  and  _406
REMARK  167  A    between atoms: _409  and  _411
REMARK  168  A    between atoms: _411  and  _412
REMARK  169  A    between atoms: _411  and  _414
REMARK  170  A    between atoms: _414  and  _415
REMARK  171  A    between atoms: _425  and  _427
REMARK  172  A    between atoms: _427  and  _428
REMARK  173  A    between atoms: _427  and  _430
REMARK  174  A    between atoms: _430  and  _431
REMARK  175  A    between atoms: _431  and  _432
REMARK  176  A    between atoms: _437  and  _439
REMARK  177  A    between atoms: _439  and  _440
REMARK  178  A    between atoms: _439  and  _442
REMARK  179  A    between atoms: _444  and  _446
REMARK  180  A    between atoms: _446  and  _447
REMARK  181  A    between atoms: _449  and  _451
REMARK  182  A    between atoms: _451  and  _452
REMARK  183  A    between atoms: _451  and  _454
REMARK  184  A    between atoms: _454  and  _455
REMARK  185  A    between atoms: _458  and  _460
REMARK  186  A    between atoms: _460  and  _461
REMARK  187  A    between atoms: _460  and  _463
REMARK  188  A    between atoms: _466  and  _468
REMARK  189  A    between atoms: _468  and  _469
REMARK  190  A    between atoms: _468  and  _471
REMARK  191  A    between atoms: _471  and  _472
REMARK  192  A    between atoms: _472  and  _473
REMARK  193  A    between atoms: _478  and  _480
REMARK  194  A    between atoms: _480  and  _481
REMARK  195  A    between atoms: _480  and  _483
REMARK  196  A    between atoms: _483  and  _484
REMARK  197  A    between atoms: _487  and  _489
REMARK  198  A    between atoms: _489  and  _490
REMARK  199  A    between atoms: _489  and  _492
REMARK  200  A    between atoms: _492  and  _493
REMARK  201  A    between atoms: _496  and  _498
REMARK  202  A    between atoms: _498  and  _499
REMARK  203  A    between atoms: _498  and  _501
REMARK  204  A    between atoms: _501  and  _502
REMARK  205  A    between atoms: _502  and  _503
REMARK  206  A    between atoms: _505  and  _507
REMARK  207  A    between atoms: _507  and  _508
REMARK  208  A    between atoms: _507  and  _510
REMARK  209  A    between atoms: _510  and  _511
REMARK  210  A    between atoms: _514  and  _516
REMARK  211  A    between atoms: _516  and  _517
REMARK  212  A    between atoms: _516  and  _519
REMARK  213  A    between atoms: _519  and  _520
REMARK  214  A    between atoms: _521  and  ZN_650
REMARK  215  A    between atoms: _525  and  _527
REMARK  216  A    between atoms: _527  and  _528
REMARK  217  A    between atoms: _527  and  _530
REMARK  218  A    between atoms: _530  and  _531
REMARK  219  A    between atoms: _531  and  _532
REMARK  220  A    between atoms: _532  and  _533
REMARK  221  A    between atoms: _542  and  _544
REMARK  222  A    between atoms: _544  and  _545
REMARK  223  A    between atoms: _548  and  _550
REMARK  224  A    between atoms: _550  and  _551
REMARK  225  A    between atoms: _550  and  _553
REMARK  226  A    between atoms: _553  and  _554
REMARK  227  A    between atoms: _557  and  _559
REMARK  228  A    between atoms: _559  and  _560
REMARK  229  A    between atoms: _559  and  _562
REMARK  230  A    between atoms: _562  and  _563
REMARK  231  A    between atoms: _566  and  _568
REMARK  232  A    between atoms: _568  and  _569
REMARK  233  A    between atoms: _571  and  _573
REMARK  234  A    between atoms: _573  and  _574
REMARK  235  A    between atoms: _573  and  _576
REMARK  236  A    between atoms: _576  and  _577
REMARK  237  A    between atoms: _579  and  _581
REMARK  238  A    between atoms: _581  and  _582
REMARK  239  A    between atoms: _581  and  _584
REMARK  240  A    between atoms: _584  and  _585
REMARK  241  A    between atoms: _585  and  _586
REMARK  242  A    between atoms: _588  and  _590
REMARK  243  A    between atoms: _590  and  _591
REMARK  244  A    between atoms: _590  and  _593
REMARK  245  A    between atoms: _593  and  _594
REMARK  246  A    between atoms: _594  and  _595
REMARK  247  A    between atoms: _598  and  _600
REMARK  248  A    between atoms: _600  and  _601
REMARK  249  A    between atoms: _600  and  _603
REMARK  250  A    between atoms: _603  and  _604
REMARK  251  A    between atoms: _604  and  _605
REMARK  252  A    between atoms: _605  and  _606
REMARK  253  A    between atoms: _615  and  _617
REMARK  254  A    between atoms: _617  and  _618
REMARK  255  A    between atoms: _617  and  _620
REMARK  256  A    between atoms: _620  and  _621
REMARK  257  A    between atoms: _627  and  _629
REMARK  258  A    between atoms: _629  and  _630
REMARK  259  A    between atoms: _629  and  _632
REMARK  260  A    between atoms: _632  and  _633
REMARK  261  A    between atoms: _636  and  _638
REMARK  262  A    between atoms: _638  and  _639
REMARK  263  A    between atoms: _641  and  _643
REMARK  264  A    between atoms: _643  and  _644
REMARK  265  A    between atoms: _643  and  _646
REMARK  266  A    between atoms: _646  and  _647
REMARK                            x       y       z     vdW  Elec       q    Type
REMARK                         _______ _______ _______ _____ _____    ______ ____
ROOT
ATOM      1  CA  SER A   1       6.403 -46.827 -18.004  0.00  0.00    +0.163 C 
ENDROOT
BRANCH   1   2
ATOM      2  N   SER A   1       6.162 -46.698 -19.426  0.00  0.00    -0.237 NA
ATOM      3  H   SER A   1       6.424 -45.810 -19.899  0.00  0.00    +0.142 HD
ENDBRANCH   1   2
BRANCH   1   4
ATOM      4  C   SER A   1       5.161 -46.358 -17.193  0.00  0.00    +0.227 C 
ATOM      5  O   SER A   1       4.744 -45.188 -17.246  0.00  0.00    -0.287 OA
ENDBRANCH   1   4
BRANCH   1   6
ATOM      6  CB  SER A   1       7.664 -46.009 -17.647  0.00  0.00    +0.162 C 
BRANCH   6   7
ATOM      7  OG  SER A   1       8.776 -46.703 -18.173  0.00  0.00    -0.380 OA
ATOM      8  H   SER A   1       9.605 -46.204 -17.962  0.00  0.00    +0.211 HD
ENDBRANCH   6   7
ENDBRANCH   1   6
TORSDOF 4
REMARK  Name = ../refined-set-2016/4hws/4hws_pocket.pdb
REMARK  266 active torsions:
REMARK  status: ('A' for Active; 'I' for Inactive)
REMARK    1  A    between atoms: _1  and  _3
REMARK    2  A    between atoms: _3  and  _4
REMARK    3  A    between atoms: _6  and  _8
REMARK    4  A    between atoms: _8  and  _9
REMARK    5  A    between atoms: _8  and  _11
REMARK    6  A    between atoms: _14  and  _16
REMARK    7  A    between atoms: _16  and  _17
REMARK    8  A    between atoms: _16  and  _19
REMARK    9  A    between atoms: _19  and  _20
REMARK   10  A    between atoms: _25  and  _27
REMARK   11  A    between atoms: _27  and  _28
REMARK   12  A    between atoms: _27  and  _30
REMARK   13  A    between atoms: _30  and  _31
REMARK   14  A    between atoms: _36  and  _37
REMARK   15  A    between atoms: _40  and  _41
REMARK   16  A    between atoms: _46  and  _48
REMARK   17  A    between atoms: _48  and  _49
REMARK   18  A    between atoms: _48  and  _51
REMARK   19  A    between atoms: _51  and  _52
REMARK   20  A    between atoms: _52  and  _53
REMARK   21  A    between atoms: _55  and  _57
REMARK   22  A    between atoms: _57  and  _58
REMARK   23  A    between atoms: _57  and  _60
REMARK   24  A    between atoms: _60  and  _61
REMARK   25  A    between atoms: _66  and  _68
REMARK   26  A    between atoms: _68  and  _69
REMARK   27  A    between atoms: _68  and  _71
REMARK   28  A    between atoms: _71  and  _72
REMARK   29  A    between atoms: _72  and  ZN_650
REMARK   30  A    between atoms: _74  and  _75
REMARK   31  A    between atoms: _80  and  _82
REMARK   32  A    between atoms: _82  and  _83
REMARK   33  A    between atoms: _82  and  _85
REMARK   34  A    between atoms: _85  and  _86
REMARK   35  A    between atoms: _91  and  _93
REMARK   36  A    between atoms: _93  and  _94
REMARK   37  A    between atoms: _93  and  _96
REMARK   38  A    between atoms: _98  and  _100
REMARK   39  A    between atoms: _100  and  _101
REMARK   40  A    between atoms: _100  and  _103
REMARK   41  A    between atoms: _103  and  _104
REMARK   42  A    between atoms: _109  and  _111
REMARK   43  A    between atoms: _111  and  _112
REMARK   44  A    between atoms: _111  and  _114
REMARK   45  A    between atoms: _114  and  _115
REMARK   46  A    between atoms: _115  and  _116
REMARK   47  A    between atoms: _116  and  _117
REMARK   48  A    between atoms: _126  and  _128
REMARK   49  A    between atoms: _128  and  _129
REMARK   50  A    between atoms: _128  and  _131
REMARK   51  A    between atoms: _131  and  _132
REMARK   52  A    between atoms: _137  and  _139
REMARK   53  A    between atoms: _139  and  _140
REMARK   54  A    between atoms: _139  and  _142
REMARK   55  A    between atoms: _142  and  _143
REMARK   56  A    between atoms: _143  and  _144
REMARK   57  A    between atoms: _147  and  _149
REMARK   58  A    between atoms: _149  and  _150
REMARK   59  A    between atoms: _149  and  _152
REMARK   60  A    between atoms: _152  and  _153
REMARK   61  A    between atoms: _155  and  _157
REMARK   62  A    between atoms: _157  and  _158
REMARK   63  A    between atoms: _157  and  _160
REMARK   64  A    between atoms: _160  and  _161
REMARK   65  A    between atoms: _164  and  _166
REMARK   66  A    between atoms: _166  and  _167
REMARK   67  A    between atoms: _166  and  _169
REMARK   68  A    between atoms: _169  and  _170
REMARK   69  A    between atoms: _175  and  _177
REMARK   70  A    between atoms: _177  and  _178
REMARK   71  A    between atoms: _180  and  _182
REMARK   72  A    between atoms: _182  and  _183
REMARK   73  A    between atoms: _182  and  _185
REMARK   74  A    between atoms: _185  and  _186
REMARK   75  A    between atoms: _189  and  _191
REMARK   76  A    between atoms: _191  and  _192
REMARK   77  A    between atoms: _191  and  _194
REMARK   78  A    between atoms: _194  and  _195
REMARK   79  A    between atoms: _195  and  _196
REMARK   80  A    between atoms: _198  and  _200
REMARK   81  A    between atoms: _200  and  _201
REMARK   82  A    between atoms: _200  and  _203
REMARK   83  A    between atoms: _203  and  _204
REMARK   84  A    between atoms: _204  and  _205
REMARK   85  A    between atoms: _205  and  _206
REMARK   86  A    between atoms: _215  and  _217
REMARK   87  A    between atoms: _217  and  _218
REMARK   88  A    between atoms: _217  and  _220
REMARK   89  A    between atoms: _223  and  _225
REMARK   90  A    between atoms: _225  and  _226
REMARK   91  A    between atoms: _225  and  _228
REMARK   92  A    between atoms: _228  and  _229
REMARK   93  A    between atoms: _229  and  _230
REMARK   94  A    between atoms: _230  and  _231
REMARK   95  A    between atoms: _240  and  _242
REMARK   96  A    between atoms: _242  and  _243
REMARK   97  A    between atoms: _245  and  _247
REMARK   98  A    between atoms: _247  and  _248
REMARK   99  A    between atoms: _247  and  _250
REMARK  100  A    between atoms: _250  and  _251
REMARK  101  A    between atoms: _257  and  _259
REMARK  102  A    between atoms: _259  and  _260
REMARK  103  A    between atoms: _259  and  _262
REMARK  104  A    between atoms: _262  and  _263
REMARK  105  A    between atoms: _266  and  _268
REMARK  106  A    between atoms: _268  and  _269
REMARK  107  A    between atoms: _268  and  _271
REMARK  108  A    between atoms: _271  and  _272
REMARK  109  A    between atoms: _272  and  _273
REMARK  110  A    between atoms: _278  and  _280
REMARK  111  A    between atoms: _280  and  _281
REMARK  112  A    between atoms: _280  and  _283
REMARK  113  A    between atoms: _283  and  _284
REMARK  114  A    between atoms: _287  and  _289
REMARK  115  A    between atoms: _289  and  _290
REMARK  116  A    between atoms: _289  and  _292
REMARK  117  A    between atoms: _292  and  _293
REMARK  118  A    between atoms: _296  and  _298
REMARK  119  A    between atoms: _298  and  _299
REMARK  120  A    between atoms: _302  and  _304
REMARK  121  A    between atoms: _304  and  _305
REMARK  122  A    between atoms: _304  and  _307
REMARK  123  A    between atoms: _307  and  _308
REMARK  124  A    between atoms: _312  and  ZN_650
REMARK  125  A    between atoms: _313  and  _315
REMARK  126  A    between atoms: _315  and  _316
REMARK  127  A    between atoms: _315  and  _318
REMARK  128  A    between atoms: _318  and  _319
REMARK  129  A    between atoms: _322  and  _324
REMARK  130  A    between atoms: _324  and  _325
REMARK  131  A    between atoms: _324  and  _327
REMARK  132  A    between atoms: _327  and  _328
REMARK  133  A    between atoms: _330  and  _332
REMARK  134  A    between atoms: _332  and  _333
REMARK  135  A    between atoms: _332  and  _335
REMARK  136  A    between atoms: _335  and  _336
REMARK  137  A    between atoms: _336  and  _337
REMARK  138  A    between atoms: _340  and  _342
REMARK  139  A    between atoms: _342  and  _343
REMARK  140  A    between atoms: _345  and  _347
REMARK  141  A    between atoms: _347  and  _348
REMARK  142  A    between atoms: _351  and  _353
REMARK  143  A    between atoms: _353  and  _354
REMARK  144  A    between atoms: _353  and  _356
REMARK  145  A    between atoms: _356  and  _357
REMARK  146  A    between atoms: _363  and  _365
REMARK  147  A    between atoms: _365  and  _366
REMARK  148  A    between atoms: _365  and  _368
REMARK  149  A    between atoms: _368  and  _369
REMARK  150  A    between atoms: _374  and  _375
REMARK  151  A    between atoms: _377  and  _379
REMARK  152  A    between atoms: _379  and  _380
REMARK  153  A    between atoms: _379  and  _382
REMARK  154  A    between atoms: _382  and  _383
REMARK  155  A    between atoms: _383  and  _384
REMARK  156  A    between atoms: _384  and  _385
REMARK  157  A    between atoms: _385  and  _386
REMARK  158  A    between atoms: _390  and  _392
REMARK  159  A    between atoms: _392  and  _393
REMARK  160  A    between atoms: _392  and  _395
REMARK  161  A    between atoms: _395  and  _396
REMARK  162  A    between atoms: _399  and  _401
REMARK  163  A    between atoms: _401  and  _402
REMARK  164  A    between atoms: _401  and  _404
REMARK  165  A    between atoms: _404  and  _405
REMARK  166  A    between atoms: _405  and  _406
REMARK  167  A    between atoms: _409  and  _411
REMARK  168  A    between atoms: _411  and  _412
REMARK  169  A    between atoms: _411  and  _414
REMARK  170  A    between atoms: _414  and  _415
REMARK  171  A    between atoms: _425  and  _427
REMARK  172  A    between atoms: _427  and  _428
REMARK  173  A    between atoms: _427  and  _430
REMARK  174  A    between atoms: _430  and  _431
REMARK  175  A    between atoms: _431  and  _432
REMARK  176  A    between atoms: _437  and  _439
REMARK  177  A    between atoms: _439  and  _440
REMARK  178  A    between atoms: _439  and  _442
REMARK  179  A    between atoms: _444  and  _446
REMARK  180  A    between atoms: _446  and  _447
REMARK  181  A    between atoms: _449  and  _451
REMARK  182  A    between atoms: _451  and  _452
REMARK  183  A    between atoms: _451  and  _454
REMARK  184  A    between atoms: _454  and  _455
REMARK  185  A    between atoms: _458  and  _460
REMARK  186  A    between atoms: _460  and  _461
REMARK  187  A    between atoms: _460  and  _463
REMARK  188  A    between atoms: _466  and  _468
REMARK  189  A    between atoms: _468  and  _469
REMARK  190  A    between atoms: _468  and  _471
REMARK  191  A    between atoms: _471  and  _472
REMARK  192  A    between atoms: _472  and  _473
REMARK  193  A    between atoms: _478  and  _480
REMARK  194  A    between atoms: _480  and  _481
REMARK  195  A    between atoms: _480  and  _483
REMARK  196  A    between atoms: _483  and  _484
REMARK  197  A    between atoms: _487  and  _489
REMARK  198  A    between atoms: _489  and  _490
REMARK  199  A    between atoms: _489  and  _492
REMARK  200  A    between atoms: _492  and  _493
REMARK  201  A    between atoms: _496  and  _498
REMARK  202  A    between atoms: _498  and  _499
REMARK  203  A    between atoms: _498  and  _501
REMARK  204  A    between atoms: _501  and  _502
REMARK  205  A    between atoms: _502  and  _503
REMARK  206  A    between atoms: _505  and  _507
REMARK  207  A    between atoms: _507  and  _508
REMARK  208  A    between atoms: _507  and  _510
REMARK  209  A    between atoms: _510  and  _511
REMARK  210  A    between atoms: _514  and  _516
REMARK  211  A    between atoms: _516  and  _517
REMARK  212  A    between atoms: _516  and  _519
REMARK  213  A    between atoms: _519  and  _520
REMARK  214  A    between atoms: _521  and  ZN_650
REMARK  215  A    between atoms: _525  and  _527
REMARK  216  A    between atoms: _527  and  _528
REMARK  217  A    between atoms: _527  and  _530
REMARK  218  A    between atoms: _530  and  _531
REMARK  219  A    between atoms: _531  and  _532
REMARK  220  A    between atoms: _532  and  _533
REMARK  221  A    between atoms: _542  and  _544
REMARK  222  A    between atoms: _544  and  _545
REMARK  223  A    between atoms: _548  and  _550
REMARK  224  A    between atoms: _550  and  _551
REMARK  225  A    between atoms: _550  and  _553
REMARK  226  A    between atoms: _553  and  _554
REMARK  227  A    between atoms: _557  and  _559
REMARK  228  A    between atoms: _559  and  _560
REMARK  229  A    between atoms: _559  and  _562
REMARK  230  A    between atoms: _562  and  _563
REMARK  231  A    between atoms: _566  and  _568
REMARK  232  A    between atoms: _568  and  _569
REMARK  233  A    between atoms: _571  and  _573
REMARK  234  A    between atoms: _573  and  _574
REMARK  235  A    between atoms: _573  and  _576
REMARK  236  A    between atoms: _576  and  _577
REMARK  237  A    between atoms: _579  and  _581
REMARK  238  A    between atoms: _581  and  _582
REMARK  239  A    between atoms: _581  and  _584
REMARK  240  A    between atoms: _584  and  _585
REMARK  241  A    between atoms: _585  and  _586
REMARK  242  A    between atoms: _588  and  _590
REMARK  243  A    between atoms: _590  and  _591
REMARK  244  A    between atoms: _590  and  _593
REMARK  245  A    between atoms: _593  and  _594
REMARK  246  A    between atoms: _594  and  _595
REMARK  247  A    between atoms: _598  and  _600
REMARK  248  A    between atoms: _600  and  _601
REMARK  249  A    between atoms: _600  and  _603
REMARK  250  A    between atoms: _603  and  _604
REMARK  251  A    between atoms: _604  and  _605
REMARK  252  A    between atoms: _605  and  _606
REMARK  253  A    between atoms: _615  and  _617
REMARK  254  A    between atoms: _617  and  _618
REMARK  255  A    between atoms: _617  and  _620
REMARK  256  A    between atoms: _620  and  _621
REMARK  257  A    between atoms: _627  and  _629
REMARK  258  A    between atoms: _629  and  _630
REMARK  259  A    between atoms: _629  and  _632
REMARK  260  A    between atoms: _632  and  _633
REMARK  261  A    between atoms: _636  and  _638
REMARK  262  A    between atoms: _638  and  _639
REMARK  263  A    between atoms: _641  and  _643
REMARK  264  A    between atoms: _643  and  _644
REMARK  265  A    between atoms: _643  and  _646
REMARK  266  A    between atoms: _646  and  _647
REMARK                            x       y       z     vdW  Elec       q    Type
REMARK                         _______ _______ _______ _____ _____    ______ ____
ROOT
ATOM      1  CA  PHE A   4       5.579 -39.420  -9.755  0.00  0.00    +0.153 C 
ENDROOT
BRANCH   1   2
ATOM      2  C   PHE A   4       4.306 -38.700 -10.240  0.00  0.00    +0.241 C 
ATOM      3  O   PHE A   4       3.202 -38.919  -9.697  0.00  0.00    -0.273 OA
ATOM      4  N   TYR A   5       4.457 -37.879 -11.285  0.00  0.00    -0.298 N 
ATOM      5  H   TYR A   5       5.385 -37.842 -11.753  0.00  0.00    +0.150 HD
BRANCH   4   6
ATOM      6  CA  TYR A   5       3.385 -37.032 -11.803  0.00  0.00    +0.141 C 
BRANCH   6   7
ATOM      7  C   TYR A   5       2.704 -37.593 -13.059  0.00  0.00    +0.227 C 
ATOM      8  O   TYR A   5       1.676 -37.042 -13.505  0.00  0.00    -0.286 OA
ENDBRANCH   6   7
BRANCH   6   9
ATOM      9  CB  TYR A   5       3.880 -35.581 -12.110  0.00  0.00    +0.054 C 
BRANCH   9  10
ATOM     10  CG  TYR A   5       5.117 -35.578 -12.971  0.00  0.00    -0.020 A 
ATOM     11  CD2 TYR A   5       6.385 -35.455 -12.396  0.00  0.00    -0.001 A 
ATOM     12  CE2 TYR A   5       7.540 -35.493 -13.163  0.00  0.00    +0.036 A 
ATOM     13  CZ  TYR A   5       7.425 -35.744 -14.521  0.00  0.00    +0.134 A 
ATOM     14  CE1 TYR A   5       6.178 -35.868 -15.128  0.00  0.00    +0.036 A 
ATOM     15  CD1 TYR A   5       5.032 -35.805 -14.345  0.00  0.00    -0.001 A 
BRANCH  13  16
ATOM     16  OH  TYR A   5       8.561 -35.794 -15.267  0.00  0.00    -0.506 OA
ATOM     17  HH  TYR A   5       8.327 -35.980 -16.211  0.00  0.00    +0.292 HD
ENDBRANCH  13  16
ENDBRANCH   9  10
ENDBRANCH   6   9
ENDBRANCH   4   6
ENDBRANCH   1   2
BRANCH   1  19
ATOM     18  C   ALA A   3       6.330 -40.243 -11.898  0.00  0.00    +0.241 C 
ATOM     19  N   PHE A   4       6.623 -39.544 -10.810  0.00  0.00    -0.297 N 
ATOM     20  H   PHE A   4       7.554 -39.096 -10.697  0.00  0.00    +0.150 HD
ATOM     21  O   ALA A   3       5.210 -40.797 -12.051  0.00  0.00    -0.273 OA
BRANCH  18  22
ATOM     22  CA  ALA A   3       7.377 -40.375 -12.997  0.00  0.00    +0.149 C 
ATOM     23  CB  ALA A   3       7.432 -39.093 -13.828  0.00  0.00    +0.031 C 
BRANCH  22  26
ATOM     24  C   GLY A   2       7.082 -42.794 -13.482  0.00  0.00    +0.243 C 
ATOM     25  O   GLY A   2       7.583 -43.148 -12.404  0.00  0.00    -0.273 OA
ATOM     26  N   ALA A   3       6.968 -41.505 -13.847  0.00  0.00    -0.297 N 
ATOM     27  H   ALA A   3       6.568 -41.294 -14.784  0.00  0.00    +0.150 HD
BRANCH  24  28
ATOM     28  CA  GLY A   2       6.562 -43.849 -14.470  0.00  0.00    +0.176 C 
BRANCH  28  30
ATOM     29  C   GLU A   1       8.332 -45.524 -14.163  0.00  0.00    +0.238 C 
ATOM     30  N   GLY A   2       7.038 -45.218 -14.153  0.00  0.00    -0.296 N 
ATOM     31  H   GLY A   2       6.343 -45.955 -13.918  0.00  0.00    +0.150 HD
ATOM     32  O   GLU A   1       9.225 -44.704 -14.525  0.00  0.00    -0.274 OA
BRANCH  29  33
ATOM     33  CA  GLU A   1       8.684 -46.961 -13.701  0.00  0.00    +0.145 C 
BRANCH  33  34
ATOM     34  N   GLU A   1       7.527 -47.844 -13.366  0.00  0.00    -0.238 NA
ATOM     35  H   GLU A   1       6.982 -48.290 -14.131  0.00  0.00    +0.142 HD
ENDBRANCH  33  34
BRANCH  33  36
ATOM     36  CB  GLU A   1       9.646 -47.671 -14.675  0.00  0.00    +0.038 C 
BRANCH  36  37
ATOM     37  CG  GLU A   1      10.402 -48.855 -14.072  0.00  0.00    +0.116 C 
BRANCH  37  38
ATOM     38  CD  GLU A   1      11.365 -48.463 -12.953  0.00  0.00    +0.365 C 
ATOM     39  OE2 GLU A   1      11.563 -49.283 -12.043  0.00  0.00    -0.246 OA
ATOM     40  OE1 GLU A   1      11.928 -47.356 -12.972  0.00  0.00    -0.246 OA
ENDBRANCH  37  38
ENDBRANCH  36  37
ENDBRANCH  33  36
ENDBRANCH  29  33
ENDBRANCH  28  30
ENDBRANCH  24  28
ENDBRANCH  22  26
ENDBRANCH  18  22
ENDBRANCH   1  19
BRANCH   1  41
ATOM     41  CB  PHE A   4       6.135 -38.769  -8.452  0.00  0.00    +0.055 C 
BRANCH  41  42
ATOM     42  CG  PHE A   4       6.425 -37.282  -8.567  0.00  0.00    -0.020 A 
ATOM     43  CD2 PHE A   4       5.448 -36.339  -8.262  0.00  0.00    -0.004 A 
ATOM     44  CE2 PHE A   4       5.727 -34.977  -8.339  0.00  0.00    -0.000 A 
ATOM     45  CZ  PHE A   4       6.988 -34.542  -8.733  0.00  0.00    -0.000 A 
ATOM     46  CE1 PHE A   4       7.983 -35.470  -9.023  0.00  0.00    -0.000 A 
ATOM     47  CD1 PHE A   4       7.697 -36.837  -8.938  0.00  0.00    -0.004 A 
ENDBRANCH  41  42
ENDBRANCH   1  41
TORSDOF 18
REMARK  Name = ../refined-set-2016/4hws/4hws_pocket.pdb
REMARK  266 active torsions:
REMARK  status: ('A' for Active; 'I' for Inactive)
REMARK    1  A    between atoms: _1  and  _3
REMARK    2  A    between atoms: _3  and  _4
REMARK    3  A    between atoms: _6  and  _8
REMARK    4  A    between atoms: _8  and  _9
REMARK    5  A    between atoms: _8  and  _11
REMARK    6  A    between atoms: _14  and  _16
REMARK    7  A    between atoms: _16  and  _17
REMARK    8  A    between atoms: _16  and  _19
REMARK    9  A    between atoms: _19  and  _20
REMARK   10  A    between atoms: _25  and  _27
REMARK   11  A    between atoms: _27  and  _28
REMARK   12  A    between atoms: _27  and  _30
REMARK   13  A    between atoms: _30  and  _31
REMARK   14  A    between atoms: _36  and  _37
REMARK   15  A    between atoms: _40  and  _41
REMARK   16  A    between atoms: _46  and  _48
REMARK   17  A    between atoms: _48  and  _49
REMARK   18  A    between atoms: _48  and  _51
REMARK   19  A    between atoms: _51  and  _52
REMARK   20  A    between atoms: _52  and  _53
REMARK   21  A    between atoms: _55  and  _57
REMARK   22  A    between atoms: _57  and  _58
REMARK   23  A    between atoms: _57  and  _60
REMARK   24  A    between atoms: _60  and  _61
REMARK   25  A    between atoms: _66  and  _68
REMARK   26  A    between atoms: _68  and  _69
REMARK   27  A    between atoms: _68  and  _71
REMARK   28  A    between atoms: _71  and  _72
REMARK   29  A    between atoms: _72  and  ZN_650
REMARK   30  A    between atoms: _74  and  _75
REMARK   31  A    between atoms: _80  and  _82
REMARK   32  A    between atoms: _82  and  _83
REMARK   33  A    between atoms: _82  and  _85
REMARK   34  A    between atoms: _85  and  _86
REMARK   35  A    between atoms: _91  and  _93
REMARK   36  A    between atoms: _93  and  _94
REMARK   37  A    between atoms: _93  and  _96
REMARK   38  A    between atoms: _98  and  _100
REMARK   39  A    between atoms: _100  and  _101
REMARK   40  A    between atoms: _100  and  _103
REMARK   41  A    between atoms: _103  and  _104
REMARK   42  A    between atoms: _109  and  _111
REMARK   43  A    between atoms: _111  and  _112
REMARK   44  A    between atoms: _111  and  _114
REMARK   45  A    between atoms: _114  and  _115
REMARK   46  A    between atoms: _115  and  _116
REMARK   47  A    between atoms: _116  and  _117
REMARK   48  A    between atoms: _126  and  _128
REMARK   49  A    between atoms: _128  and  _129
REMARK   50  A    between atoms: _128  and  _131
REMARK   51  A    between atoms: _131  and  _132
REMARK   52  A    between atoms: _137  and  _139
REMARK   53  A    between atoms: _139  and  _140
REMARK   54  A    between atoms: _139  and  _142
REMARK   55  A    between atoms: _142  and  _143
REMARK   56  A    between atoms: _143  and  _144
REMARK   57  A    between atoms: _147  and  _149
REMARK   58  A    between atoms: _149  and  _150
REMARK   59  A    between atoms: _149  and  _152
REMARK   60  A    between atoms: _152  and  _153
REMARK   61  A    between atoms: _155  and  _157
REMARK   62  A    between atoms: _157  and  _158
REMARK   63  A    between atoms: _157  and  _160
REMARK   64  A    between atoms: _160  and  _161
REMARK   65  A    between atoms: _164  and  _166
REMARK   66  A    between atoms: _166  and  _167
REMARK   67  A    between atoms: _166  and  _169
REMARK   68  A    between atoms: _169  and  _170
REMARK   69  A    between atoms: _175  and  _177
REMARK   70  A    between atoms: _177  and  _178
REMARK   71  A    between atoms: _180  and  _182
REMARK   72  A    between atoms: _182  and  _183
REMARK   73  A    between atoms: _182  and  _185
REMARK   74  A    between atoms: _185  and  _186
REMARK   75  A    between atoms: _189  and  _191
REMARK   76  A    between atoms: _191  and  _192
REMARK   77  A    between atoms: _191  and  _194
REMARK   78  A    between atoms: _194  and  _195
REMARK   79  A    between atoms: _195  and  _196
REMARK   80  A    between atoms: _198  and  _200
REMARK   81  A    between atoms: _200  and  _201
REMARK   82  A    between atoms: _200  and  _203
REMARK   83  A    between atoms: _203  and  _204
REMARK   84  A    between atoms: _204  and  _205
REMARK   85  A    between atoms: _205  and  _206
REMARK   86  A    between atoms: _215  and  _217
REMARK   87  A    between atoms: _217  and  _218
REMARK   88  A    between atoms: _217  and  _220
REMARK   89  A    between atoms: _223  and  _225
REMARK   90  A    between atoms: _225  and  _226
REMARK   91  A    between atoms: _225  and  _228
REMARK   92  A    between atoms: _228  and  _229
REMARK   93  A    between atoms: _229  and  _230
REMARK   94  A    between atoms: _230  and  _231
REMARK   95  A    between atoms: _240  and  _242
REMARK   96  A    between atoms: _242  and  _243
REMARK   97  A    between atoms: _245  and  _247
REMARK   98  A    between atoms: _247  and  _248
REMARK   99  A    between atoms: _247  and  _250
REMARK  100  A    between atoms: _250  and  _251
REMARK  101  A    between atoms: _257  and  _259
REMARK  102  A    between atoms: _259  and  _260
REMARK  103  A    between atoms: _259  and  _262
REMARK  104  A    between atoms: _262  and  _263
REMARK  105  A    between atoms: _266  and  _268
REMARK  106  A    between atoms: _268  and  _269
REMARK  107  A    between atoms: _268  and  _271
REMARK  108  A    between atoms: _271  and  _272
REMARK  109  A    between atoms: _272  and  _273
REMARK  110  A    between atoms: _278  and  _280
REMARK  111  A    between atoms: _280  and  _281
REMARK  112  A    between atoms: _280  and  _283
REMARK  113  A    between atoms: _283  and  _284
REMARK  114  A    between atoms: _287  and  _289
REMARK  115  A    between atoms: _289  and  _290
REMARK  116  A    between atoms: _289  and  _292
REMARK  117  A    between atoms: _292  and  _293
REMARK  118  A    between atoms: _296  and  _298
REMARK  119  A    between atoms: _298  and  _299
REMARK  120  A    between atoms: _302  and  _304
REMARK  121  A    between atoms: _304  and  _305
REMARK  122  A    between atoms: _304  and  _307
REMARK  123  A    between atoms: _307  and  _308
REMARK  124  A    between atoms: _312  and  ZN_650
REMARK  125  A    between atoms: _313  and  _315
REMARK  126  A    between atoms: _315  and  _316
REMARK  127  A    between atoms: _315  and  _318
REMARK  128  A    between atoms: _318  and  _319
REMARK  129  A    between atoms: _322  and  _324
REMARK  130  A    between atoms: _324  and  _325
REMARK  131  A    between atoms: _324  and  _327
REMARK  132  A    between atoms: _327  and  _328
REMARK  133  A    between atoms: _330  and  _332
REMARK  134  A    between atoms: _332  and  _333
REMARK  135  A    between atoms: _332  and  _335
REMARK  136  A    between atoms: _335  and  _336
REMARK  137  A    between atoms: _336  and  _337
REMARK  138  A    between atoms: _340  and  _342
REMARK  139  A    between atoms: _342  and  _343
REMARK  140  A    between atoms: _345  and  _347
REMARK  141  A    between atoms: _347  and  _348
REMARK  142  A    between atoms: _351  and  _353
REMARK  143  A    between atoms: _353  and  _354
REMARK  144  A    between atoms: _353  and  _356
REMARK  145  A    between atoms: _356  and  _357
REMARK  146  A    between atoms: _363  and  _365
REMARK  147  A    between atoms: _365  and  _366
REMARK  148  A    between atoms: _365  and  _368
REMARK  149  A    between atoms: _368  and  _369
REMARK  150  A    between atoms: _374  and  _375
REMARK  151  A    between atoms: _377  and  _379
REMARK  152  A    between atoms: _379  and  _380
REMARK  153  A    between atoms: _379  and  _382
REMARK  154  A    between atoms: _382  and  _383
REMARK  155  A    between atoms: _383  and  _384
REMARK  156  A    between atoms: _384  and  _385
REMARK  157  A    between atoms: _385  and  _386
REMARK  158  A    between atoms: _390  and  _392
REMARK  159  A    between atoms: _392  and  _393
REMARK  160  A    between atoms: _392  and  _395
REMARK  161  A    between atoms: _395  and  _396
REMARK  162  A    between atoms: _399  and  _401
REMARK  163  A    between atoms: _401  and  _402
REMARK  164  A    between atoms: _401  and  _404
REMARK  165  A    between atoms: _404  and  _405
REMARK  166  A    between atoms: _405  and  _406
REMARK  167  A    between atoms: _409  and  _411
REMARK  168  A    between atoms: _411  and  _412
REMARK  169  A    between atoms: _411  and  _414
REMARK  170  A    between atoms: _414  and  _415
REMARK  171  A    between atoms: _425  and  _427
REMARK  172  A    between atoms: _427  and  _428
REMARK  173  A    between atoms: _427  and  _430
REMARK  174  A    between atoms: _430  and  _431
REMARK  175  A    between atoms: _431  and  _432
REMARK  176  A    between atoms: _437  and  _439
REMARK  177  A    between atoms: _439  and  _440
REMARK  178  A    between atoms: _439  and  _442
REMARK  179  A    between atoms: _444  and  _446
REMARK  180  A    between atoms: _446  and  _447
REMARK  181  A    between atoms: _449  and  _451
REMARK  182  A    between atoms: _451  and  _452
REMARK  183  A    between atoms: _451  and  _454
REMARK  184  A    between atoms: _454  and  _455
REMARK  185  A    between atoms: _458  and  _460
REMARK  186  A    between atoms: _460  and  _461
REMARK  187  A    between atoms: _460  and  _463
REMARK  188  A    between atoms: _466  and  _468
REMARK  189  A    between atoms: _468  and  _469
REMARK  190  A    between atoms: _468  and  _471
REMARK  191  A    between atoms: _471  and  _472
REMARK  192  A    between atoms: _472  and  _473
REMARK  193  A    between atoms: _478  and  _480
REMARK  194  A    between atoms: _480  and  _481
REMARK  195  A    between atoms: _480  and  _483
REMARK  196  A    between atoms: _483  and  _484
REMARK  197  A    between atoms: _487  and  _489
REMARK  198  A    between atoms: _489  and  _490
REMARK  199  A    between atoms: _489  and  _492
REMARK  200  A    between atoms: _492  and  _493
REMARK  201  A    between atoms: _496  and  _498
REMARK  202  A    between atoms: _498  and  _499
REMARK  203  A    between atoms: _498  and  _501
REMARK  204  A    between atoms: _501  and  _502
REMARK  205  A    between atoms: _502  and  _503
REMARK  206  A    between atoms: _505  and  _507
REMARK  207  A    between atoms: _507  and  _508
REMARK  208  A    between atoms: _507  and  _510
REMARK  209  A    between atoms: _510  and  _511
REMARK  210  A    between atoms: _514  and  _516
REMARK  211  A    between atoms: _516  and  _517
REMARK  212  A    between atoms: _516  and  _519
REMARK  213  A    between atoms: _519  and  _520
REMARK  214  A    between atoms: _521  and  ZN_650
REMARK  215  A    between atoms: _525  and  _527
REMARK  216  A    between atoms: _527  and  _528
REMARK  217  A    between atoms: _527  and  _530
REMARK  218  A    between atoms: _530  and  _531
REMARK  219  A    between atoms: _531  and  _532
REMARK  220  A    between atoms: _532  and  _533
REMARK  221  A    between atoms: _542  and  _544
REMARK  222  A    between atoms: _544  and  _545
REMARK  223  A    between atoms: _548  and  _550
REMARK  224  A    between atoms: _550  and  _551
REMARK  225  A    between atoms: _550  and  _553
REMARK  226  A    between atoms: _553  and  _554
REMARK  227  A    between atoms: _557  and  _559
REMARK  228  A    between atoms: _559  and  _560
REMARK  229  A    between atoms: _559  and  _562
REMARK  230  A    between atoms: _562  and  _563
REMARK  231  A    between atoms: _566  and  _568
REMARK  232  A    between atoms: _568  and  _569
REMARK  233  A    between atoms: _571  and  _573
REMARK  234  A    between atoms: _573  and  _574
REMARK  235  A    between atoms: _573  and  _576
REMARK  236  A    between atoms: _576  and  _577
REMARK  237  A    between atoms: _579  and  _581
REMARK  238  A    between atoms: _581  and  _582
REMARK  239  A    between atoms: _581  and  _584
REMARK  240  A    between atoms: _584  and  _585
REMARK  241  A    between atoms: _585  and  _586
REMARK  242  A    between atoms: _588  and  _590
REMARK  243  A    between atoms: _590  and  _591
REMARK  244  A    between atoms: _590  and  _593
REMARK  245  A    between atoms: _593  and  _594
REMARK  246  A    between atoms: _594  and  _595
REMARK  247  A    between atoms: _598  and  _600
REMARK  248  A    between atoms: _600  and  _601
REMARK  249  A    between atoms: _600  and  _603
REMARK  250  A    between atoms: _603  and  _604
REMARK  251  A    between atoms: _604  and  _605
REMARK  252  A    between atoms: _605  and  _606
REMARK  253  A    between atoms: _615  and  _617
REMARK  254  A    between atoms: _617  and  _618
REMARK  255  A    between atoms: _617  and  _620
REMARK  256  A    between atoms: _620  and  _621
REMARK  257  A    between atoms: _627  and  _629
REMARK  258  A    between atoms: _629  and  _630
REMARK  259  A    between atoms: _629  and  _632
REMARK  260  A    between atoms: _632  and  _633
REMARK  261  A    between atoms: _636  and  _638
REMARK  262  A    between atoms: _638  and  _639
REMARK  263  A    between atoms: _641  and  _643
REMARK  264  A    between atoms: _643  and  _644
REMARK  265  A    between atoms: _643  and  _646
REMARK  266  A    between atoms: _646  and  _647
REMARK                            x       y       z     vdW  Elec       q    Type
REMARK                         _______ _______ _______ _____ _____    ______ ____
ROOT
ATOM      1  CA  ILE A   2       7.003 -43.298 -23.078  0.00  0.00    +0.148 C 
ENDROOT
BRANCH   1   4
ATOM      2  C   LYS A   1       6.457 -43.004 -20.736  0.00  0.00    +0.238 C 
ATOM      3  O   LYS A   1       6.607 -44.203 -20.460  0.00  0.00    -0.274 OA
ATOM      4  N   ILE A   2       6.429 -42.535 -21.979  0.00  0.00    -0.297 N 
ATOM      5  H   ILE A   2       5.991 -41.611 -22.169  0.00  0.00    +0.150 HD
BRANCH   2   6
ATOM      6  CA  LYS A   1       6.342 -41.987 -19.608  0.00  0.00    +0.145 C 
BRANCH   6   7
ATOM      7  N   LYS A   1       5.297 -42.423 -18.682  0.00  0.00    -0.238 NA
ATOM      8  H   LYS A   1       5.283 -43.414 -18.367  0.00  0.00    +0.142 HD
ENDBRANCH   6   7
BRANCH   6   9
ATOM      9  CB  LYS A   1       7.703 -41.968 -18.893  0.00  0.00    +0.026 C 
BRANCH   9  10
ATOM     10  CG  LYS A   1       7.743 -41.242 -17.545  0.00  0.00    -0.000 C 
BRANCH  10  11
ATOM     11  CD  LYS A   1       9.014 -41.567 -16.709  0.00  0.00    -0.024 C 
BRANCH  11  12
ATOM     12  CE  LYS A   1      10.311 -41.723 -17.511  0.00  0.00    -0.086 C 
BRANCH  12  13
ATOM     13  NZ  LYS A   1      11.520 -41.668 -16.572  0.00  0.00    +0.380 N 
ATOM     14  HZ1 LYS A   1      11.453 -42.439 -15.877  0.00  0.00    -0.089 HD
ATOM     15  HZ2 LYS A   1      11.532 -40.753 -16.077  0.00  0.00    -0.089 HD
ATOM     16  HZ3 LYS A   1      12.393 -41.775 -17.127  0.00  0.00    -0.089 HD
ENDBRANCH  12  13
ENDBRANCH  11  12
ENDBRANCH  10  11
ENDBRANCH   9  10
ENDBRANCH   6   9
ENDBRANCH   2   6
ENDBRANCH   1   4
BRANCH   1  17
ATOM     17  C   ILE A   2       8.515 -43.110 -22.974  0.00  0.00    +0.241 C 
ATOM     18  O   ILE A   2       8.978 -41.986 -22.799  0.00  0.00    -0.273 OA
ATOM     19  N   GLU A   3       9.263 -44.213 -23.060  0.00  0.00    -0.298 N 
ATOM     20  H   GLU A   3       8.789 -45.135 -23.142  0.00  0.00    +0.150 HD
BRANCH  19  21
ATOM     21  CA  GLU A   3      10.749 -44.170 -23.043  0.00  0.00    +0.137 C 
BRANCH  21  22
ATOM     22  C   GLU A   3      11.313 -44.713 -24.332  0.00  0.00    +0.227 C 
ATOM     23  O   GLU A   3      10.931 -45.797 -24.789  0.00  0.00    -0.286 OA
ENDBRANCH  21  22
BRANCH  21  24
ATOM     24  CB  GLU A   3      11.318 -44.986 -21.870  0.00  0.00    +0.039 C 
BRANCH  24  25
ATOM     25  CG  GLU A   3      10.802 -44.557 -20.513  0.00  0.00    +0.116 C 
BRANCH  25  26
ATOM     26  CD  GLU A   3      11.469 -45.283 -19.351  0.00  0.00    +0.365 C 
ATOM     27  OE2 GLU A   3      10.938 -45.059 -18.244  0.00  0.00    -0.246 OA
ATOM     28  OE1 GLU A   3      12.512 -45.986 -19.548  0.00  0.00    -0.246 OA
ENDBRANCH  25  26
ENDBRANCH  24  25
ENDBRANCH  21  24
ENDBRANCH  19  21
ENDBRANCH   1  17
BRANCH   1  29
ATOM     29  CB  ILE A   2       6.522 -42.786 -24.442  0.00  0.00    +0.027 C 
ATOM     30  CG2 ILE A   2       7.337 -43.450 -25.606  0.00  0.00    +0.002 C 
BRANCH  29  31
ATOM     31  CG1 ILE A   2       4.983 -42.959 -24.528  0.00  0.00    +0.002 C 
ATOM     32  CD1 ILE A   2       4.345 -42.187 -25.683  0.00  0.00    +0.000 C 
ENDBRANCH  29  31
ENDBRANCH   1  29
TORSDOF 16
REMARK  Name = ../refined-set-2016/4hws/4hws_pocket.pdb
REMARK  266 active torsions:
REMARK  status: ('A' for Active; 'I' for Inactive)
REMARK    1  A    between atoms: _1  and  _3
REMARK    2  A    between atoms: _3  and  _4
REMARK    3  A    between atoms: _6  and  _8
REMARK    4  A    between atoms: _8  and  _9
REMARK    5  A    between atoms: _8  and  _11
REMARK    6  A    between atoms: _14  and  _16
REMARK    7  A    between atoms: _16  and  _17
REMARK    8  A    between atoms: _16  and  _19
REMARK    9  A    between atoms: _19  and  _20
REMARK   10  A    between atoms: _25  and  _27
REMARK   11  A    between atoms: _27  and  _28
REMARK   12  A    between atoms: _27  and  _30
REMARK   13  A    between atoms: _30  and  _31
REMARK   14  A    between atoms: _36  and  _37
REMARK   15  A    between atoms: _40  and  _41
REMARK   16  A    between atoms: _46  and  _48
REMARK   17  A    between atoms: _48  and  _49
REMARK   18  A    between atoms: _48  and  _51
REMARK   19  A    between atoms: _51  and  _52
REMARK   20  A    between atoms: _52  and  _53
REMARK   21  A    between atoms: _55  and  _57
REMARK   22  A    between atoms: _57  and  _58
REMARK   23  A    between atoms: _57  and  _60
REMARK   24  A    between atoms: _60  and  _61
REMARK   25  A    between atoms: _66  and  _68
REMARK   26  A    between atoms: _68  and  _69
REMARK   27  A    between atoms: _68  and  _71
REMARK   28  A    between atoms: _71  and  _72
REMARK   29  A    between atoms: _72  and  ZN_650
REMARK   30  A    between atoms: _74  and  _75
REMARK   31  A    between atoms: _80  and  _82
REMARK   32  A    between atoms: _82  and  _83
REMARK   33  A    between atoms: _82  and  _85
REMARK   34  A    between atoms: _85  and  _86
REMARK   35  A    between atoms: _91  and  _93
REMARK   36  A    between atoms: _93  and  _94
REMARK   37  A    between atoms: _93  and  _96
REMARK   38  A    between atoms: _98  and  _100
REMARK   39  A    between atoms: _100  and  _101
REMARK   40  A    between atoms: _100  and  _103
REMARK   41  A    between atoms: _103  and  _104
REMARK   42  A    between atoms: _109  and  _111
REMARK   43  A    between atoms: _111  and  _112
REMARK   44  A    between atoms: _111  and  _114
REMARK   45  A    between atoms: _114  and  _115
REMARK   46  A    between atoms: _115  and  _116
REMARK   47  A    between atoms: _116  and  _117
REMARK   48  A    between atoms: _126  and  _128
REMARK   49  A    between atoms: _128  and  _129
REMARK   50  A    between atoms: _128  and  _131
REMARK   51  A    between atoms: _131  and  _132
REMARK   52  A    between atoms: _137  and  _139
REMARK   53  A    between atoms: _139  and  _140
REMARK   54  A    between atoms: _139  and  _142
REMARK   55  A    between atoms: _142  and  _143
REMARK   56  A    between atoms: _143  and  _144
REMARK   57  A    between atoms: _147  and  _149
REMARK   58  A    between atoms: _149  and  _150
REMARK   59  A    between atoms: _149  and  _152
REMARK   60  A    between atoms: _152  and  _153
REMARK   61  A    between atoms: _155  and  _157
REMARK   62  A    between atoms: _157  and  _158
REMARK   63  A    between atoms: _157  and  _160
REMARK   64  A    between atoms: _160  and  _161
REMARK   65  A    between atoms: _164  and  _166
REMARK   66  A    between atoms: _166  and  _167
REMARK   67  A    between atoms: _166  and  _169
REMARK   68  A    between atoms: _169  and  _170
REMARK   69  A    between atoms: _175  and  _177
REMARK   70  A    between atoms: _177  and  _178
REMARK   71  A    between atoms: _180  and  _182
REMARK   72  A    between atoms: _182  and  _183
REMARK   73  A    between atoms: _182  and  _185
REMARK   74  A    between atoms: _185  and  _186
REMARK   75  A    between atoms: _189  and  _191
REMARK   76  A    between atoms: _191  and  _192
REMARK   77  A    between atoms: _191  and  _194
REMARK   78  A    between atoms: _194  and  _195
REMARK   79  A    between atoms: _195  and  _196
REMARK   80  A    between atoms: _198  and  _200
REMARK   81  A    between atoms: _200  and  _201
REMARK   82  A    between atoms: _200  and  _203
REMARK   83  A    between atoms: _203  and  _204
REMARK   84  A    between atoms: _204  and  _205
REMARK   85  A    between atoms: _205  and  _206
REMARK   86  A    between atoms: _215  and  _217
REMARK   87  A    between atoms: _217  and  _218
REMARK   88  A    between atoms: _217  and  _220
REMARK   89  A    between atoms: _223  and  _225
REMARK   90  A    between atoms: _225  and  _226
REMARK   91  A    between atoms: _225  and  _228
REMARK   92  A    between atoms: _228  and  _229
REMARK   93  A    between atoms: _229  and  _230
REMARK   94  A    between atoms: _230  and  _231
REMARK   95  A    between atoms: _240  and  _242
REMARK   96  A    between atoms: _242  and  _243
REMARK   97  A    between atoms: _245  and  _247
REMARK   98  A    between atoms: _247  and  _248
REMARK   99  A    between atoms: _247  and  _250
REMARK  100  A    between atoms: _250  and  _251
REMARK  101  A    between atoms: _257  and  _259
REMARK  102  A    between atoms: _259  and  _260
REMARK  103  A    between atoms: _259  and  _262
REMARK  104  A    between atoms: _262  and  _263
REMARK  105  A    between atoms: _266  and  _268
REMARK  106  A    between atoms: _268  and  _269
REMARK  107  A    between atoms: _268  and  _271
REMARK  108  A    between atoms: _271  and  _272
REMARK  109  A    between atoms: _272  and  _273
REMARK  110  A    between atoms: _278  and  _280
REMARK  111  A    between atoms: _280  and  _281
REMARK  112  A    between atoms: _280  and  _283
REMARK  113  A    between atoms: _283  and  _284
REMARK  114  A    between atoms: _287  and  _289
REMARK  115  A    between atoms: _289  and  _290
REMARK  116  A    between atoms: _289  and  _292
REMARK  117  A    between atoms: _292  and  _293
REMARK  118  A    between atoms: _296  and  _298
REMARK  119  A    between atoms: _298  and  _299
REMARK  120  A    between atoms: _302  and  _304
REMARK  121  A    between atoms: _304  and  _305
REMARK  122  A    between atoms: _304  and  _307
REMARK  123  A    between atoms: _307  and  _308
REMARK  124  A    between atoms: _312  and  ZN_650
REMARK  125  A    between atoms: _313  and  _315
REMARK  126  A    between atoms: _315  and  _316
REMARK  127  A    between atoms: _315  and  _318
REMARK  128  A    between atoms: _318  and  _319
REMARK  129  A    between atoms: _322  and  _324
REMARK  130  A    between atoms: _324  and  _325
REMARK  131  A    between atoms: _324  and  _327
REMARK  132  A    between atoms: _327  and  _328
REMARK  133  A    between atoms: _330  and  _332
REMARK  134  A    between atoms: _332  and  _333
REMARK  135  A    between atoms: _332  and  _335
REMARK  136  A    between atoms: _335  and  _336
REMARK  137  A    between atoms: _336  and  _337
REMARK  138  A    between atoms: _340  and  _342
REMARK  139  A    between atoms: _342  and  _343
REMARK  140  A    between atoms: _345  and  _347
REMARK  141  A    between atoms: _347  and  _348
REMARK  142  A    between atoms: _351  and  _353
REMARK  143  A    between atoms: _353  and  _354
REMARK  144  A    between atoms: _353  and  _356
REMARK  145  A    between atoms: _356  and  _357
REMARK  146  A    between atoms: _363  and  _365
REMARK  147  A    between atoms: _365  and  _366
REMARK  148  A    between atoms: _365  and  _368
REMARK  149  A    between atoms: _368  and  _369
REMARK  150  A    between atoms: _374  and  _375
REMARK  151  A    between atoms: _377  and  _379
REMARK  152  A    between atoms: _379  and  _380
REMARK  153  A    between atoms: _379  and  _382
REMARK  154  A    between atoms: _382  and  _383
REMARK  155  A    between atoms: _383  and  _384
REMARK  156  A    between atoms: _384  and  _385
REMARK  157  A    between atoms: _385  and  _386
REMARK  158  A    between atoms: _390  and  _392
REMARK  159  A    between atoms: _392  and  _393
REMARK  160  A    between atoms: _392  and  _395
REMARK  161  A    between atoms: _395  and  _396
REMARK  162  A    between atoms: _399  and  _401
REMARK  163  A    between atoms: _401  and  _402
REMARK  164  A    between atoms: _401  and  _404
REMARK  165  A    between atoms: _404  and  _405
REMARK  166  A    between atoms: _405  and  _406
REMARK  167  A    between atoms: _409  and  _411
REMARK  168  A    between atoms: _411  and  _412
REMARK  169  A    between atoms: _411  and  _414
REMARK  170  A    between atoms: _414  and  _415
REMARK  171  A    between atoms: _425  and  _427
REMARK  172  A    between atoms: _427  and  _428
REMARK  173  A    between atoms: _427  and  _430
REMARK  174  A    between atoms: _430  and  _431
REMARK  175  A    between atoms: _431  and  _432
REMARK  176  A    between atoms: _437  and  _439
REMARK  177  A    between atoms: _439  and  _440
REMARK  178  A    between atoms: _439  and  _442
REMARK  179  A    between atoms: _444  and  _446
REMARK  180  A    between atoms: _446  and  _447
REMARK  181  A    between atoms: _449  and  _451
REMARK  182  A    between atoms: _451  and  _452
REMARK  183  A    between atoms: _451  and  _454
REMARK  184  A    between atoms: _454  and  _455
REMARK  185  A    between atoms: _458  and  _460
REMARK  186  A    between atoms: _460  and  _461
REMARK  187  A    between atoms: _460  and  _463
REMARK  188  A    between atoms: _466  and  _468
REMARK  189  A    between atoms: _468  and  _469
REMARK  190  A    between atoms: _468  and  _471
REMARK  191  A    between atoms: _471  and  _472
REMARK  192  A    between atoms: _472  and  _473
REMARK  193  A    between atoms: _478  and  _480
REMARK  194  A    between atoms: _480  and  _481
REMARK  195  A    between atoms: _480  and  _483
REMARK  196  A    between atoms: _483  and  _484
REMARK  197  A    between atoms: _487  and  _489
REMARK  198  A    between atoms: _489  and  _490
REMARK  199  A    between atoms: _489  and  _492
REMARK  200  A    between atoms: _492  and  _493
REMARK  201  A    between atoms: _496  and  _498
REMARK  202  A    between atoms: _498  and  _499
REMARK  203  A    between atoms: _498  and  _501
REMARK  204  A    between atoms: _501  and  _502
REMARK  205  A    between atoms: _502  and  _503
REMARK  206  A    between atoms: _505  and  _507
REMARK  207  A    between atoms: _507  and  _508
REMARK  208  A    between atoms: _507  and  _510
REMARK  209  A    between atoms: _510  and  _511
REMARK  210  A    between atoms: _514  and  _516
REMARK  211  A    between atoms: _516  and  _517
REMARK  212  A    between atoms: _516  and  _519
REMARK  213  A    between atoms: _519  and  _520
REMARK  214  A    between atoms: _521  and  ZN_650
REMARK  215  A    between atoms: _525  and  _527
REMARK  216  A    between atoms: _527  and  _528
REMARK  217  A    between atoms: _527  and  _530
REMARK  218  A    between atoms: _530  and  _531
REMARK  219  A    between atoms: _531  and  _532
REMARK  220  A    between atoms: _532  and  _533
REMARK  221  A    between atoms: _542  and  _544
REMARK  222  A    between atoms: _544  and  _545
REMARK  223  A    between atoms: _548  and  _550
REMARK  224  A    between atoms: _550  and  _551
REMARK  225  A    between atoms: _550  and  _553
REMARK  226  A    between atoms: _553  and  _554
REMARK  227  A    between atoms: _557  and  _559
REMARK  228  A    between atoms: _559  and  _560
REMARK  229  A    between atoms: _559  and  _562
REMARK  230  A    between atoms: _562  and  _563
REMARK  231  A    between atoms: _566  and  _568
REMARK  232  A    between atoms: _568  and  _569
REMARK  233  A    between atoms: _571  and  _573
REMARK  234  A    between atoms: _573  and  _574
REMARK  235  A    between atoms: _573  and  _576
REMARK  236  A    between atoms: _576  and  _577
REMARK  237  A    between atoms: _579  and  _581
REMARK  238  A    between atoms: _581  and  _582
REMARK  239  A    between atoms: _581  and  _584
REMARK  240  A    between atoms: _584  and  _585
REMARK  241  A    between atoms: _585  and  _586
REMARK  242  A    between atoms: _588  and  _590
REMARK  243  A    between atoms: _590  and  _591
REMARK  244  A    between atoms: _590  and  _593
REMARK  245  A    between atoms: _593  and  _594
REMARK  246  A    between atoms: _594  and  _595
REMARK  247  A    between atoms: _598  and  _600
REMARK  248  A    between atoms: _600  and  _601
REMARK  249  A    between atoms: _600  and  _603
REMARK  250  A    between atoms: _603  and  _604
REMARK  251  A    between atoms: _604  and  _605
REMARK  252  A    between atoms: _605  and  _606
REMARK  253  A    between atoms: _615  and  _617
REMARK  254  A    between atoms: _617  and  _618
REMARK  255  A    between atoms: _617  and  _620
REMARK  256  A    between atoms: _620  and  _621
REMARK  257  A    between atoms: _627  and  _629
REMARK  258  A    between atoms: _629  and  _630
REMARK  259  A    between atoms: _629  and  _632
REMARK  260  A    between atoms: _632  and  _633
REMARK  261  A    between atoms: _636  and  _638
REMARK  262  A    between atoms: _638  and  _639
REMARK  263  A    between atoms: _641  and  _643
REMARK  264  A    between atoms: _643  and  _644
REMARK  265  A    between atoms: _643  and  _646
REMARK  266  A    between atoms: _646  and  _647
REMARK                            x       y       z     vdW  Elec       q    Type
REMARK                         _______ _______ _______ _____ _____    ______ ____
ROOT
ATOM      1  C   CYS A   3      15.853 -40.261 -24.229  0.00  0.00    +0.242 C 
ATOM      2  O   CYS A   3      15.457 -39.497 -23.342  0.00  0.00    -0.273 OA
ATOM      3  N   GLY A   4      15.174 -40.478 -25.350  0.00  0.00    -0.295 N 
ATOM      4  H   GLY A   4      15.567 -41.101 -26.085  0.00  0.00    +0.150 HD
ENDROOT
BRANCH   3   5
ATOM      5  CA  GLY A   4      13.852 -39.830 -25.553  0.00  0.00    +0.176 C 
BRANCH   5   6
ATOM      6  C   GLY A   4      12.810 -40.189 -24.512  0.00  0.00    +0.243 C 
ATOM      7  O   GLY A   4      12.783 -41.333 -24.016  0.00  0.00    -0.273 OA
ATOM      8  N   THR A   5      11.940 -39.235 -24.185  0.00  0.00    -0.295 N 
ATOM      9  H   THR A   5      12.054 -38.282 -24.585  0.00  0.00    +0.150 HD
BRANCH   8  10
ATOM     10  CA  THR A   5      10.815 -39.505 -23.265  0.00  0.00    +0.176 C 
BRANCH  10  11
ATOM     11  C   THR A   5       9.671 -38.555 -23.531  0.00  0.00    +0.243 C 
ATOM     12  N   VAL A   6       8.467 -39.085 -23.478  0.00  0.00    -0.297 N 
ATOM     13  H   VAL A   6       8.376 -40.101 -23.274  0.00  0.00    +0.150 HD
ATOM     14  O   THR A   5       9.884 -37.370 -23.807  0.00  0.00    -0.273 OA
BRANCH  12  15
ATOM     15  CA  VAL A   6       7.246 -38.295 -23.697  0.00  0.00    +0.149 C 
BRANCH  15  16
ATOM     16  C   VAL A   6       6.265 -38.659 -22.573  0.00  0.00    +0.241 C 
ATOM     17  N   GLN A   7       5.798 -37.666 -21.818  0.00  0.00    -0.298 N 
ATOM     18  H   GLN A   7       5.932 -36.679 -22.117  0.00  0.00    +0.150 HD
ATOM     19  O   VAL A   6       5.993 -39.836 -22.337  0.00  0.00    -0.273 OA
BRANCH  17  20
ATOM     20  CA  GLN A   7       5.090 -37.965 -20.558  0.00  0.00    +0.137 C 
BRANCH  20  21
ATOM     21  C   GLN A   7       3.834 -37.113 -20.514  0.00  0.00    +0.227 C 
ATOM     22  O   GLN A   7       3.790 -35.978 -21.076  0.00  0.00    -0.286 OA
ENDBRANCH  20  21
BRANCH  20  23
ATOM     23  CB  GLN A   7       6.001 -37.684 -19.335  0.00  0.00    +0.037 C 
BRANCH  23  24
ATOM     24  CG  GLN A   7       7.458 -38.040 -19.604  0.00  0.00    +0.087 C 
BRANCH  24  25
ATOM     25  CD  GLN A   7       8.443 -37.610 -18.521  0.00  0.00    +0.219 C 
ATOM     26  NE2 GLN A   7       8.017 -36.714 -17.644  0.00  0.00    -0.329 N 
ATOM     27 HE21 GLN A   7       8.653 -36.379 -16.892  0.00  0.00    +0.145 HD
ATOM     28 HE22 GLN A   7       7.047 -36.345 -17.707  0.00  0.00    +0.145 HD
ATOM     29  OE1 GLN A   7       9.628 -38.103 -18.497  0.00  0.00    -0.275 OA
ENDBRANCH  24  25
ENDBRANCH  23  24
ENDBRANCH  20  23
ENDBRANCH  17  20
ENDBRANCH  15  16
BRANCH  15  30
ATOM     30  CB  VAL A   6       6.600 -38.601 -25.086  0.00  0.00    +0.027 C 
ATOM     31  CG2 VAL A   6       5.364 -37.750 -25.313  0.00  0.00    +0.002 C 
ATOM     32  CG1 VAL A   6       7.579 -38.351 -26.219  0.00  0.00    +0.002 C 
ENDBRANCH  15  30
ENDBRANCH  12  15
ENDBRANCH  10  11
BRANCH  10  33
ATOM     33  CB  THR A   5      11.228 -39.543 -21.756  0.00  0.00    +0.137 C 
ATOM     34  CG2 THR A   5      11.793 -38.215 -21.248  0.00  0.00    +0.034 C 
BRANCH  33  35
ATOM     35  OG1 THR A   5      10.122 -39.962 -20.938  0.00  0.00    -0.382 OA
ATOM     36  HG1 THR A   5       9.833 -40.868 -21.215  0.00  0.00    +0.210 HD
ENDBRANCH  33  35
ENDBRANCH  10  33
ENDBRANCH   8  10
ENDBRANCH   5   6
ENDBRANCH   3   5
BRANCH   1  37
ATOM     37  CA  CYS A   3      17.153 -41.017 -24.009  0.00  0.00    +0.160 C 
BRANCH  37  40
ATOM     38  C   GLN A   2      17.247 -42.482 -22.105  0.00  0.00    +0.241 C 
ATOM     39  O   GLN A   2      18.007 -41.721 -21.518  0.00  0.00    -0.273 OA
ATOM     40  N   CYS A   3      16.776 -42.230 -23.310  0.00  0.00    -0.296 N 
ATOM     41  H   CYS A   3      16.129 -42.907 -23.763  0.00  0.00    +0.150 HD
BRANCH  38  42
ATOM     42  CA  GLN A   2      16.789 -43.770 -21.417  0.00  0.00    +0.149 C 
BRANCH  42  44
ATOM     43  C   TRP A   1      18.685 -45.144 -21.986  0.00  0.00    +0.239 C 
ATOM     44  N   GLN A   2      17.959 -44.568 -21.025  0.00  0.00    -0.297 N 
ATOM     45  H   GLN A   2      18.215 -44.681 -20.023  0.00  0.00    +0.150 HD
ATOM     46  O   TRP A   1      18.383 -45.059 -23.174  0.00  0.00    -0.274 OA
BRANCH  43  47
ATOM     47  CA  TRP A   1      19.930 -45.873 -21.560  0.00  0.00    +0.149 C 
BRANCH  47  48
ATOM     48  N   TRP A   1      19.990 -47.239 -22.129  0.00  0.00    -0.238 NA
ATOM     49  H   TRP A   1      20.021 -47.363 -23.161  0.00  0.00    +0.142 HD
ENDBRANCH  47  48
BRANCH  47  50
ATOM     50  CB  TRP A   1      21.156 -45.058 -21.980  0.00  0.00    +0.054 C 
BRANCH  50  51
ATOM     51  CG  TRP A   1      22.426 -45.620 -21.396  0.00  0.00    -0.002 A 
ATOM     52  CD2 TRP A   1      22.947 -45.383 -20.047  0.00  0.00    +0.013 A 
ATOM     53  CE3 TRP A   1      22.516 -44.625 -18.947  0.00  0.00    +0.001 A 
ATOM     54  CZ3 TRP A   1      23.308 -44.609 -17.789  0.00  0.00    +0.000 A 
ATOM     55  CH2 TRP A   1      24.518 -45.357 -17.699  0.00  0.00    +0.001 A 
ATOM     56  CZ2 TRP A   1      24.977 -46.131 -18.788  0.00  0.00    +0.017 A 
ATOM     57  CE2 TRP A   1      24.192 -46.137 -19.946  0.00  0.00    +0.056 A 
ATOM     58  NE1 TRP A   1      24.377 -46.768 -21.144  0.00  0.00    -0.352 N 
ATOM     59  HE1 TRP A   1      25.187 -47.379 -21.375  0.00  0.00    +0.166 HD
ATOM     60  CD1 TRP A   1      23.335 -46.479 -22.005  0.00  0.00    +0.068 A 
ENDBRANCH  50  51
ENDBRANCH  47  50
ENDBRANCH  43  47
ENDBRANCH  42  44
BRANCH  42  61
ATOM     61  CB  GLN A   2      15.929 -43.395 -20.196  0.00  0.00    +0.039 C 
BRANCH  61  62
ATOM     62  CG  GLN A   2      14.758 -42.481 -20.606  0.00  0.00    +0.087 C 
BRANCH  62  63
ATOM     63  CD  GLN A   2      14.086 -41.816 -19.436  0.00  0.00    +0.219 C 
ATOM     64  OE1 GLN A   2      13.364 -42.485 -18.691  0.00  0.00    -0.275 OA
ATOM     65  NE2 GLN A   2      14.288 -40.478 -19.263  0.00  0.00    -0.329 N 
ATOM     66 HE21 GLN A   2      13.824 -39.979 -18.477  0.00  0.00    +0.145 HD
ATOM     67 HE22 GLN A   2      14.906 -39.956 -19.917  0.00  0.00    +0.145 HD
ENDBRANCH  62  63
ENDBRANCH  61  62
ENDBRANCH  42  61
ENDBRANCH  38  42
ENDBRANCH  37  40
BRANCH  37  68
ATOM     68  CB  CYS A   3      17.917 -41.319 -25.290  0.00  0.00    +0.098 C 
ATOM     69  SG  CYS A   3      19.558 -41.998 -24.927  0.00  0.00    -0.080 S 
ENDBRANCH  37  68
ENDBRANCH   1  37
TORSDOF 26
REMARK  Name = ../refined-set-2016/4hws/4hws_pocket.pdb
REMARK  266 active torsions:
REMARK  status: ('A' for Active; 'I' for Inactive)
REMARK    1  A    between atoms: _1  and  _3
REMARK    2  A    between atoms: _3  and  _4
REMARK    3  A    between atoms: _6  and  _8
REMARK    4  A    between atoms: _8  and  _9
REMARK    5  A    between atoms: _8  and  _11
REMARK    6  A    between atoms: _14  and  _16
REMARK    7  A    between atoms: _16  and  _17
REMARK    8  A    between atoms: _16  and  _19
REMARK    9  A    between atoms: _19  and  _20
REMARK   10  A    between atoms: _25  and  _27
REMARK   11  A    between atoms: _27  and  _28
REMARK   12  A    between atoms: _27  and  _30
REMARK   13  A    between atoms: _30  and  _31
REMARK   14  A    between atoms: _36  and  _37
REMARK   15  A    between atoms: _40  and  _41
REMARK   16  A    between atoms: _46  and  _48
REMARK   17  A    between atoms: _48  and  _49
REMARK   18  A    between atoms: _48  and  _51
REMARK   19  A    between atoms: _51  and  _52
REMARK   20  A    between atoms: _52  and  _53
REMARK   21  A    between atoms: _55  and  _57
REMARK   22  A    between atoms: _57  and  _58
REMARK   23  A    between atoms: _57  and  _60
REMARK   24  A    between atoms: _60  and  _61
REMARK   25  A    between atoms: _66  and  _68
REMARK   26  A    between atoms: _68  and  _69
REMARK   27  A    between atoms: _68  and  _71
REMARK   28  A    between atoms: _71  and  _72
REMARK   29  A    between atoms: _72  and  ZN_650
REMARK   30  A    between atoms: _74  and  _75
REMARK   31  A    between atoms: _80  and  _82
REMARK   32  A    between atoms: _82  and  _83
REMARK   33  A    between atoms: _82  and  _85
REMARK   34  A    between atoms: _85  and  _86
REMARK   35  A    between atoms: _91  and  _93
REMARK   36  A    between atoms: _93  and  _94
REMARK   37  A    between atoms: _93  and  _96
REMARK   38  A    between atoms: _98  and  _100
REMARK   39  A    between atoms: _100  and  _101
REMARK   40  A    between atoms: _100  and  _103
REMARK   41  A    between atoms: _103  and  _104
REMARK   42  A    between atoms: _109  and  _111
REMARK   43  A    between atoms: _111  and  _112
REMARK   44  A    between atoms: _111  and  _114
REMARK   45  A    between atoms: _114  and  _115
REMARK   46  A    between atoms: _115  and  _116
REMARK   47  A    between atoms: _116  and  _117
REMARK   48  A    between atoms: _126  and  _128
REMARK   49  A    between atoms: _128  and  _129
REMARK   50  A    between atoms: _128  and  _131
REMARK   51  A    between atoms: _131  and  _132
REMARK   52  A    between atoms: _137  and  _139
REMARK   53  A    between atoms: _139  and  _140
REMARK   54  A    between atoms: _139  and  _142
REMARK   55  A    between atoms: _142  and  _143
REMARK   56  A    between atoms: _143  and  _144
REMARK   57  A    between atoms: _147  and  _149
REMARK   58  A    between atoms: _149  and  _150
REMARK   59  A    between atoms: _149  and  _152
REMARK   60  A    between atoms: _152  and  _153
REMARK   61  A    between atoms: _155  and  _157
REMARK   62  A    between atoms: _157  and  _158
REMARK   63  A    between atoms: _157  and  _160
REMARK   64  A    between atoms: _160  and  _161
REMARK   65  A    between atoms: _164  and  _166
REMARK   66  A    between atoms: _166  and  _167
REMARK   67  A    between atoms: _166  and  _169
REMARK   68  A    between atoms: _169  and  _170
REMARK   69  A    between atoms: _175  and  _177
REMARK   70  A    between atoms: _177  and  _178
REMARK   71  A    between atoms: _180  and  _182
REMARK   72  A    between atoms: _182  and  _183
REMARK   73  A    between atoms: _182  and  _185
REMARK   74  A    between atoms: _185  and  _186
REMARK   75  A    between atoms: _189  and  _191
REMARK   76  A    between atoms: _191  and  _192
REMARK   77  A    between atoms: _191  and  _194
REMARK   78  A    between atoms: _194  and  _195
REMARK   79  A    between atoms: _195  and  _196
REMARK   80  A    between atoms: _198  and  _200
REMARK   81  A    between atoms: _200  and  _201
REMARK   82  A    between atoms: _200  and  _203
REMARK   83  A    between atoms: _203  and  _204
REMARK   84  A    between atoms: _204  and  _205
REMARK   85  A    between atoms: _205  and  _206
REMARK   86  A    between atoms: _215  and  _217
REMARK   87  A    between atoms: _217  and  _218
REMARK   88  A    between atoms: _217  and  _220
REMARK   89  A    between atoms: _223  and  _225
REMARK   90  A    between atoms: _225  and  _226
REMARK   91  A    between atoms: _225  and  _228
REMARK   92  A    between atoms: _228  and  _229
REMARK   93  A    between atoms: _229  and  _230
REMARK   94  A    between atoms: _230  and  _231
REMARK   95  A    between atoms: _240  and  _242
REMARK   96  A    between atoms: _242  and  _243
REMARK   97  A    between atoms: _245  and  _247
REMARK   98  A    between atoms: _247  and  _248
REMARK   99  A    between atoms: _247  and  _250
REMARK  100  A    between atoms: _250  and  _251
REMARK  101  A    between atoms: _257  and  _259
REMARK  102  A    between atoms: _259  and  _260
REMARK  103  A    between atoms: _259  and  _262
REMARK  104  A    between atoms: _262  and  _263
REMARK  105  A    between atoms: _266  and  _268
REMARK  106  A    between atoms: _268  and  _269
REMARK  107  A    between atoms: _268  and  _271
REMARK  108  A    between atoms: _271  and  _272
REMARK  109  A    between atoms: _272  and  _273
REMARK  110  A    between atoms: _278  and  _280
REMARK  111  A    between atoms: _280  and  _281
REMARK  112  A    between atoms: _280  and  _283
REMARK  113  A    between atoms: _283  and  _284
REMARK  114  A    between atoms: _287  and  _289
REMARK  115  A    between atoms: _289  and  _290
REMARK  116  A    between atoms: _289  and  _292
REMARK  117  A    between atoms: _292  and  _293
REMARK  118  A    between atoms: _296  and  _298
REMARK  119  A    between atoms: _298  and  _299
REMARK  120  A    between atoms: _302  and  _304
REMARK  121  A    between atoms: _304  and  _305
REMARK  122  A    between atoms: _304  and  _307
REMARK  123  A    between atoms: _307  and  _308
REMARK  124  A    between atoms: _312  and  ZN_650
REMARK  125  A    between atoms: _313  and  _315
REMARK  126  A    between atoms: _315  and  _316
REMARK  127  A    between atoms: _315  and  _318
REMARK  128  A    between atoms: _318  and  _319
REMARK  129  A    between atoms: _322  and  _324
REMARK  130  A    between atoms: _324  and  _325
REMARK  131  A    between atoms: _324  and  _327
REMARK  132  A    between atoms: _327  and  _328
REMARK  133  A    between atoms: _330  and  _332
REMARK  134  A    between atoms: _332  and  _333
REMARK  135  A    between atoms: _332  and  _335
REMARK  136  A    between atoms: _335  and  _336
REMARK  137  A    between atoms: _336  and  _337
REMARK  138  A    between atoms: _340  and  _342
REMARK  139  A    between atoms: _342  and  _343
REMARK  140  A    between atoms: _345  and  _347
REMARK  141  A    between atoms: _347  and  _348
REMARK  142  A    between atoms: _351  and  _353
REMARK  143  A    between atoms: _353  and  _354
REMARK  144  A    between atoms: _353  and  _356
REMARK  145  A    between atoms: _356  and  _357
REMARK  146  A    between atoms: _363  and  _365
REMARK  147  A    between atoms: _365  and  _366
REMARK  148  A    between atoms: _365  and  _368
REMARK  149  A    between atoms: _368  and  _369
REMARK  150  A    between atoms: _374  and  _375
REMARK  151  A    between atoms: _377  and  _379
REMARK  152  A    between atoms: _379  and  _380
REMARK  153  A    between atoms: _379  and  _382
REMARK  154  A    between atoms: _382  and  _383
REMARK  155  A    between atoms: _383  and  _384
REMARK  156  A    between atoms: _384  and  _385
REMARK  157  A    between atoms: _385  and  _386
REMARK  158  A    between atoms: _390  and  _392
REMARK  159  A    between atoms: _392  and  _393
REMARK  160  A    between atoms: _392  and  _395
REMARK  161  A    between atoms: _395  and  _396
REMARK  162  A    between atoms: _399  and  _401
REMARK  163  A    between atoms: _401  and  _402
REMARK  164  A    between atoms: _401  and  _404
REMARK  165  A    between atoms: _404  and  _405
REMARK  166  A    between atoms: _405  and  _406
REMARK  167  A    between atoms: _409  and  _411
REMARK  168  A    between atoms: _411  and  _412
REMARK  169  A    between atoms: _411  and  _414
REMARK  170  A    between atoms: _414  and  _415
REMARK  171  A    between atoms: _425  and  _427
REMARK  172  A    between atoms: _427  and  _428
REMARK  173  A    between atoms: _427  and  _430
REMARK  174  A    between atoms: _430  and  _431
REMARK  175  A    between atoms: _431  and  _432
REMARK  176  A    between atoms: _437  and  _439
REMARK  177  A    between atoms: _439  and  _440
REMARK  178  A    between atoms: _439  and  _442
REMARK  179  A    between atoms: _444  and  _446
REMARK  180  A    between atoms: _446  and  _447
REMARK  181  A    between atoms: _449  and  _451
REMARK  182  A    between atoms: _451  and  _452
REMARK  183  A    between atoms: _451  and  _454
REMARK  184  A    between atoms: _454  and  _455
REMARK  185  A    between atoms: _458  and  _460
REMARK  186  A    between atoms: _460  and  _461
REMARK  187  A    between atoms: _460  and  _463
REMARK  188  A    between atoms: _466  and  _468
REMARK  189  A    between atoms: _468  and  _469
REMARK  190  A    between atoms: _468  and  _471
REMARK  191  A    between atoms: _471  and  _472
REMARK  192  A    between atoms: _472  and  _473
REMARK  193  A    between atoms: _478  and  _480
REMARK  194  A    between atoms: _480  and  _481
REMARK  195  A    between atoms: _480  and  _483
REMARK  196  A    between atoms: _483  and  _484
REMARK  197  A    between atoms: _487  and  _489
REMARK  198  A    between atoms: _489  and  _490
REMARK  199  A    between atoms: _489  and  _492
REMARK  200  A    between atoms: _492  and  _493
REMARK  201  A    between atoms: _496  and  _498
REMARK  202  A    between atoms: _498  and  _499
REMARK  203  A    between atoms: _498  and  _501
REMARK  204  A    between atoms: _501  and  _502
REMARK  205  A    between atoms: _502  and  _503
REMARK  206  A    between atoms: _505  and  _507
REMARK  207  A    between atoms: _507  and  _508
REMARK  208  A    between atoms: _507  and  _510
REMARK  209  A    between atoms: _510  and  _511
REMARK  210  A    between atoms: _514  and  _516
REMARK  211  A    between atoms: _516  and  _517
REMARK  212  A    between atoms: _516  and  _519
REMARK  213  A    between atoms: _519  and  _520
REMARK  214  A    between atoms: _521  and  ZN_650
REMARK  215  A    between atoms: _525  and  _527
REMARK  216  A    between atoms: _527  and  _528
REMARK  217  A    between atoms: _527  and  _530
REMARK  218  A    between atoms: _530  and  _531
REMARK  219  A    between atoms: _531  and  _532
REMARK  220  A    between atoms: _532  and  _533
REMARK  221  A    between atoms: _542  and  _544
REMARK  222  A    between atoms: _544  and  _545
REMARK  223  A    between atoms: _548  and  _550
REMARK  224  A    between atoms: _550  and  _551
REMARK  225  A    between atoms: _550  and  _553
REMARK  226  A    between atoms: _553  and  _554
REMARK  227  A    between atoms: _557  and  _559
REMARK  228  A    between atoms: _559  and  _560
REMARK  229  A    between atoms: _559  and  _562
REMARK  230  A    between atoms: _562  and  _563
REMARK  231  A    between atoms: _566  and  _568
REMARK  232  A    between atoms: _568  and  _569
REMARK  233  A    between atoms: _571  and  _573
REMARK  234  A    between atoms: _573  and  _574
REMARK  235  A    between atoms: _573  and  _576
REMARK  236  A    between atoms: _576  and  _577
REMARK  237  A    between atoms: _579  and  _581
REMARK  238  A    between atoms: _581  and  _582
REMARK  239  A    between atoms: _581  and  _584
REMARK  240  A    between atoms: _584  and  _585
REMARK  241  A    between atoms: _585  and  _586
REMARK  242  A    between atoms: _588  and  _590
REMARK  243  A    between atoms: _590  and  _591
REMARK  244  A    between atoms: _590  and  _593
REMARK  245  A    between atoms: _593  and  _594
REMARK  246  A    between atoms: _594  and  _595
REMARK  247  A    between atoms: _598  and  _600
REMARK  248  A    between atoms: _600  and  _601
REMARK  249  A    between atoms: _600  and  _603
REMARK  250  A    between atoms: _603  and  _604
REMARK  251  A    between atoms: _604  and  _605
REMARK  252  A    between atoms: _605  and  _606
REMARK  253  A    between atoms: _615  and  _617
REMARK  254  A    between atoms: _617  and  _618
REMARK  255  A    between atoms: _617  and  _620
REMARK  256  A    between atoms: _620  and  _621
REMARK  257  A    between atoms: _627  and  _629
REMARK  258  A    between atoms: _629  and  _630
REMARK  259  A    between atoms: _629  and  _632
REMARK  260  A    between atoms: _632  and  _633
REMARK  261  A    between atoms: _636  and  _638
REMARK  262  A    between atoms: _638  and  _639
REMARK  263  A    between atoms: _641  and  _643
REMARK  264  A    between atoms: _643  and  _644
REMARK  265  A    between atoms: _643  and  _646
REMARK  266  A    between atoms: _646  and  _647
REMARK                            x       y       z     vdW  Elec       q    Type
REMARK                         _______ _______ _______ _____ _____    ______ ____
ROOT
ATOM      1  CA  ASP A   1       0.771 -34.854 -16.720  0.00  0.00    +0.144 C 
ENDROOT
BRANCH   1   2
ATOM      2  N   ASP A   1       0.809 -35.344 -18.106  0.00  0.00    -0.239 NA
ATOM      3  H   ASP A   1       0.591 -34.687 -18.882  0.00  0.00    +0.142 HD
ENDBRANCH   1   2
BRANCH   1   4
ATOM      4  C   ASP A   1      -0.543 -34.090 -16.511  0.00  0.00    +0.225 C 
ATOM      5  O   ASP A   1      -0.736 -32.992 -17.048  0.00  0.00    -0.287 OA
ENDBRANCH   1   4
BRANCH   1   6
ATOM      6  CB  ASP A   1       1.987 -33.945 -16.512  0.00  0.00    +0.139 C 
BRANCH   6   7
ATOM      7  CG  ASP A   1       2.076 -33.292 -15.108  0.00  0.00    +0.367 C 
ATOM      8  OD2 ASP A   1       1.213 -33.530 -14.234  0.00  0.00    -0.246 OA
ATOM      9  OD1 ASP A   1       3.107 -32.595 -14.880  0.00  0.00    -0.246 OA
ENDBRANCH   6   7
ENDBRANCH   1   6
TORSDOF 4
REMARK  Name = ../refined-set-2016/4hws/4hws_pocket.pdb
REMARK  266 active torsions:
REMARK  status: ('A' for Active; 'I' for Inactive)
REMARK    1  A    between atoms: _1  and  _3
REMARK    2  A    between atoms: _3  and  _4
REMARK    3  A    between atoms: _6  and  _8
REMARK    4  A    between atoms: _8  and  _9
REMARK    5  A    between atoms: _8  and  _11
REMARK    6  A    between atoms: _14  and  _16
REMARK    7  A    between atoms: _16  and  _17
REMARK    8  A    between atoms: _16  and  _19
REMARK    9  A    between atoms: _19  and  _20
REMARK   10  A    between atoms: _25  and  _27
REMARK   11  A    between atoms: _27  and  _28
REMARK   12  A    between atoms: _27  and  _30
REMARK   13  A    between atoms: _30  and  _31
REMARK   14  A    between atoms: _36  and  _37
REMARK   15  A    between atoms: _40  and  _41
REMARK   16  A    between atoms: _46  and  _48
REMARK   17  A    between atoms: _48  and  _49
REMARK   18  A    between atoms: _48  and  _51
REMARK   19  A    between atoms: _51  and  _52
REMARK   20  A    between atoms: _52  and  _53
REMARK   21  A    between atoms: _55  and  _57
REMARK   22  A    between atoms: _57  and  _58
REMARK   23  A    between atoms: _57  and  _60
REMARK   24  A    between atoms: _60  and  _61
REMARK   25  A    between atoms: _66  and  _68
REMARK   26  A    between atoms: _68  and  _69
REMARK   27  A    between atoms: _68  and  _71
REMARK   28  A    between atoms: _71  and  _72
REMARK   29  A    between atoms: _72  and  ZN_650
REMARK   30  A    between atoms: _74  and  _75
REMARK   31  A    between atoms: _80  and  _82
REMARK   32  A    between atoms: _82  and  _83
REMARK   33  A    between atoms: _82  and  _85
REMARK   34  A    between atoms: _85  and  _86
REMARK   35  A    between atoms: _91  and  _93
REMARK   36  A    between atoms: _93  and  _94
REMARK   37  A    between atoms: _93  and  _96
REMARK   38  A    between atoms: _98  and  _100
REMARK   39  A    between atoms: _100  and  _101
REMARK   40  A    between atoms: _100  and  _103
REMARK   41  A    between atoms: _103  and  _104
REMARK   42  A    between atoms: _109  and  _111
REMARK   43  A    between atoms: _111  and  _112
REMARK   44  A    between atoms: _111  and  _114
REMARK   45  A    between atoms: _114  and  _115
REMARK   46  A    between atoms: _115  and  _116
REMARK   47  A    between atoms: _116  and  _117
REMARK   48  A    between atoms: _126  and  _128
REMARK   49  A    between atoms: _128  and  _129
REMARK   50  A    between atoms: _128  and  _131
REMARK   51  A    between atoms: _131  and  _132
REMARK   52  A    between atoms: _137  and  _139
REMARK   53  A    between atoms: _139  and  _140
REMARK   54  A    between atoms: _139  and  _142
REMARK   55  A    between atoms: _142  and  _143
REMARK   56  A    between atoms: _143  and  _144
REMARK   57  A    between atoms: _147  and  _149
REMARK   58  A    between atoms: _149  and  _150
REMARK   59  A    between atoms: _149  and  _152
REMARK   60  A    between atoms: _152  and  _153
REMARK   61  A    between atoms: _155  and  _157
REMARK   62  A    between atoms: _157  and  _158
REMARK   63  A    between atoms: _157  and  _160
REMARK   64  A    between atoms: _160  and  _161
REMARK   65  A    between atoms: _164  and  _166
REMARK   66  A    between atoms: _166  and  _167
REMARK   67  A    between atoms: _166  and  _169
REMARK   68  A    between atoms: _169  and  _170
REMARK   69  A    between atoms: _175  and  _177
REMARK   70  A    between atoms: _177  and  _178
REMARK   71  A    between atoms: _180  and  _182
REMARK   72  A    between atoms: _182  and  _183
REMARK   73  A    between atoms: _182  and  _185
REMARK   74  A    between atoms: _185  and  _186
REMARK   75  A    between atoms: _189  and  _191
REMARK   76  A    between atoms: _191  and  _192
REMARK   77  A    between atoms: _191  and  _194
REMARK   78  A    between atoms: _194  and  _195
REMARK   79  A    between atoms: _195  and  _196
REMARK   80  A    between atoms: _198  and  _200
REMARK   81  A    between atoms: _200  and  _201
REMARK   82  A    between atoms: _200  and  _203
REMARK   83  A    between atoms: _203  and  _204
REMARK   84  A    between atoms: _204  and  _205
REMARK   85  A    between atoms: _205  and  _206
REMARK   86  A    between atoms: _215  and  _217
REMARK   87  A    between atoms: _217  and  _218
REMARK   88  A    between atoms: _217  and  _220
REMARK   89  A    between atoms: _223  and  _225
REMARK   90  A    between atoms: _225  and  _226
REMARK   91  A    between atoms: _225  and  _228
REMARK   92  A    between atoms: _228  and  _229
REMARK   93  A    between atoms: _229  and  _230
REMARK   94  A    between atoms: _230  and  _231
REMARK   95  A    between atoms: _240  and  _242
REMARK   96  A    between atoms: _242  and  _243
REMARK   97  A    between atoms: _245  and  _247
REMARK   98  A    between atoms: _247  and  _248
REMARK   99  A    between atoms: _247  and  _250
REMARK  100  A    between atoms: _250  and  _251
REMARK  101  A    between atoms: _257  and  _259
REMARK  102  A    between atoms: _259  and  _260
REMARK  103  A    between atoms: _259  and  _262
REMARK  104  A    between atoms: _262  and  _263
REMARK  105  A    between atoms: _266  and  _268
REMARK  106  A    between atoms: _268  and  _269
REMARK  107  A    between atoms: _268  and  _271
REMARK  108  A    between atoms: _271  and  _272
REMARK  109  A    between atoms: _272  and  _273
REMARK  110  A    between atoms: _278  and  _280
REMARK  111  A    between atoms: _280  and  _281
REMARK  112  A    between atoms: _280  and  _283
REMARK  113  A    between atoms: _283  and  _284
REMARK  114  A    between atoms: _287  and  _289
REMARK  115  A    between atoms: _289  and  _290
REMARK  116  A    between atoms: _289  and  _292
REMARK  117  A    between atoms: _292  and  _293
REMARK  118  A    between atoms: _296  and  _298
REMARK  119  A    between atoms: _298  and  _299
REMARK  120  A    between atoms: _302  and  _304
REMARK  121  A    between atoms: _304  and  _305
REMARK  122  A    between atoms: _304  and  _307
REMARK  123  A    between atoms: _307  and  _308
REMARK  124  A    between atoms: _312  and  ZN_650
REMARK  125  A    between atoms: _313  and  _315
REMARK  126  A    between atoms: _315  and  _316
REMARK  127  A    between atoms: _315  and  _318
REMARK  128  A    between atoms: _318  and  _319
REMARK  129  A    between atoms: _322  and  _324
REMARK  130  A    between atoms: _324  and  _325
REMARK  131  A    between atoms: _324  and  _327
REMARK  132  A    between atoms: _327  and  _328
REMARK  133  A    between atoms: _330  and  _332
REMARK  134  A    between atoms: _332  and  _333
REMARK  135  A    between atoms: _332  and  _335
REMARK  136  A    between atoms: _335  and  _336
REMARK  137  A    between atoms: _336  and  _337
REMARK  138  A    between atoms: _340  and  _342
REMARK  139  A    between atoms: _342  and  _343
REMARK  140  A    between atoms: _345  and  _347
REMARK  141  A    between atoms: _347  and  _348
REMARK  142  A    between atoms: _351  and  _353
REMARK  143  A    between atoms: _353  and  _354
REMARK  144  A    between atoms: _353  and  _356
REMARK  145  A    between atoms: _356  and  _357
REMARK  146  A    between atoms: _363  and  _365
REMARK  147  A    between atoms: _365  and  _366
REMARK  148  A    between atoms: _365  and  _368
REMARK  149  A    between atoms: _368  and  _369
REMARK  150  A    between atoms: _374  and  _375
REMARK  151  A    between atoms: _377  and  _379
REMARK  152  A    between atoms: _379  and  _380
REMARK  153  A    between atoms: _379  and  _382
REMARK  154  A    between atoms: _382  and  _383
REMARK  155  A    between atoms: _383  and  _384
REMARK  156  A    between atoms: _384  and  _385
REMARK  157  A    between atoms: _385  and  _386
REMARK  158  A    between atoms: _390  and  _392
REMARK  159  A    between atoms: _392  and  _393
REMARK  160  A    between atoms: _392  and  _395
REMARK  161  A    between atoms: _395  and  _396
REMARK  162  A    between atoms: _399  and  _401
REMARK  163  A    between atoms: _401  and  _402
REMARK  164  A    between atoms: _401  and  _404
REMARK  165  A    between atoms: _404  and  _405
REMARK  166  A    between atoms: _405  and  _406
REMARK  167  A    between atoms: _409  and  _411
REMARK  168  A    between atoms: _411  and  _412
REMARK  169  A    between atoms: _411  and  _414
REMARK  170  A    between atoms: _414  and  _415
REMARK  171  A    between atoms: _425  and  _427
REMARK  172  A    between atoms: _427  and  _428
REMARK  173  A    between atoms: _427  and  _430
REMARK  174  A    between atoms: _430  and  _431
REMARK  175  A    between atoms: _431  and  _432
REMARK  176  A    between atoms: _437  and  _439
REMARK  177  A    between atoms: _439  and  _440
REMARK  178  A    between atoms: _439  and  _442
REMARK  179  A    between atoms: _444  and  _446
REMARK  180  A    between atoms: _446  and  _447
REMARK  181  A    between atoms: _449  and  _451
REMARK  182  A    between atoms: _451  and  _452
REMARK  183  A    between atoms: _451  and  _454
REMARK  184  A    between atoms: _454  and  _455
REMARK  185  A    between atoms: _458  and  _460
REMARK  186  A    between atoms: _460  and  _461
REMARK  187  A    between atoms: _460  and  _463
REMARK  188  A    between atoms: _466  and  _468
REMARK  189  A    between atoms: _468  and  _469
REMARK  190  A    between atoms: _468  and  _471
REMARK  191  A    between atoms: _471  and  _472
REMARK  192  A    between atoms: _472  and  _473
REMARK  193  A    between atoms: _478  and  _480
REMARK  194  A    between atoms: _480  and  _481
REMARK  195  A    between atoms: _480  and  _483
REMARK  196  A    between atoms: _483  and  _484
REMARK  197  A    between atoms: _487  and  _489
REMARK  198  A    between atoms: _489  and  _490
REMARK  199  A    between atoms: _489  and  _492
REMARK  200  A    between atoms: _492  and  _493
REMARK  201  A    between atoms: _496  and  _498
REMARK  202  A    between atoms: _498  and  _499
REMARK  203  A    between atoms: _498  and  _501
REMARK  204  A    between atoms: _501  and  _502
REMARK  205  A    between atoms: _502  and  _503
REMARK  206  A    between atoms: _505  and  _507
REMARK  207  A    between atoms: _507  and  _508
REMARK  208  A    between atoms: _507  and  _510
REMARK  209  A    between atoms: _510  and  _511
REMARK  210  A    between atoms: _514  and  _516
REMARK  211  A    between atoms: _516  and  _517
REMARK  212  A    between atoms: _516  and  _519
REMARK  213  A    between atoms: _519  and  _520
REMARK  214  A    between atoms: _521  and  ZN_650
REMARK  215  A    between atoms: _525  and  _527
REMARK  216  A    between atoms: _527  and  _528
REMARK  217  A    between atoms: _527  and  _530
REMARK  218  A    between atoms: _530  and  _531
REMARK  219  A    between atoms: _531  and  _532
REMARK  220  A    between atoms: _532  and  _533
REMARK  221  A    between atoms: _542  and  _544
REMARK  222  A    between atoms: _544  and  _545
REMARK  223  A    between atoms: _548  and  _550
REMARK  224  A    between atoms: _550  and  _551
REMARK  225  A    between atoms: _550  and  _553
REMARK  226  A    between atoms: _553  and  _554
REMARK  227  A    between atoms: _557  and  _559
REMARK  228  A    between atoms: _559  and  _560
REMARK  229  A    between atoms: _559  and  _562
REMARK  230  A    between atoms: _562  and  _563
REMARK  231  A    between atoms: _566  and  _568
REMARK  232  A    between atoms: _568  and  _569
REMARK  233  A    between atoms: _571  and  _573
REMARK  234  A    between atoms: _573  and  _574
REMARK  235  A    between atoms: _573  and  _576
REMARK  236  A    between atoms: _576  and  _577
REMARK  237  A    between atoms: _579  and  _581
REMARK  238  A    between atoms: _581  and  _582
REMARK  239  A    between atoms: _581  and  _584
REMARK  240  A    between atoms: _584  and  _585
REMARK  241  A    between atoms: _585  and  _586
REMARK  242  A    between atoms: _588  and  _590
REMARK  243  A    between atoms: _590  and  _591
REMARK  244  A    between atoms: _590  and  _593
REMARK  245  A    between atoms: _593  and  _594
REMARK  246  A    between atoms: _594  and  _595
REMARK  247  A    between atoms: _598  and  _600
REMARK  248  A    between atoms: _600  and  _601
REMARK  249  A    between atoms: _600  and  _603
REMARK  250  A    between atoms: _603  and  _604
REMARK  251  A    between atoms: _604  and  _605
REMARK  252  A    between atoms: _605  and  _606
REMARK  253  A    between atoms: _615  and  _617
REMARK  254  A    between atoms: _617  and  _618
REMARK  255  A    between atoms: _617  and  _620
REMARK  256  A    between atoms: _620  and  _621
REMARK  257  A    between atoms: _627  and  _629
REMARK  258  A    between atoms: _629  and  _630
REMARK  259  A    between atoms: _629  and  _632
REMARK  260  A    between atoms: _632  and  _633
REMARK  261  A    between atoms: _636  and  _638
REMARK  262  A    between atoms: _638  and  _639
REMARK  263  A    between atoms: _641  and  _643
REMARK  264  A    between atoms: _643  and  _644
REMARK  265  A    between atoms: _643  and  _646
REMARK  266  A    between atoms: _646  and  _647
REMARK                            x       y       z     vdW  Elec       q    Type
REMARK                         _______ _______ _______ _____ _____    ______ ____
ROOT
ATOM      1  CA  LEU A   1       1.498 -30.503 -11.777  0.00  0.00    +0.133 C 
ENDROOT
BRANCH   1   2
ATOM      2  N   LEU A   1       0.692 -31.693 -12.164  0.00  0.00    -0.239 NA
ATOM      3  H   LEU A   1       1.037 -32.347 -12.896  0.00  0.00    +0.142 HD
ENDBRANCH   1   2
BRANCH   1   4
ATOM      4  C   LEU A   1       0.830 -29.151 -12.090  0.00  0.00    +0.224 C 
ATOM      5  O   LEU A   1       0.894 -28.245 -11.265  0.00  0.00    -0.287 OA
ENDBRANCH   1   4
BRANCH   1   6
ATOM      6  CB  LEU A   1       2.903 -30.556 -12.382  0.00  0.00    +0.025 C 
BRANCH   6   7
ATOM      7  CG  LEU A   1       3.748 -31.758 -11.949  0.00  0.00    +0.002 C 
ATOM      8  CD2 LEU A   1       3.772 -31.999 -10.434  0.00  0.00    +0.000 C 
ATOM      9  CD1 LEU A   1       5.162 -31.613 -12.498  0.00  0.00    +0.000 C 
ENDBRANCH   6   7
ENDBRANCH   1   6
TORSDOF 4
REMARK  Name = ../refined-set-2016/4hws/4hws_pocket.pdb
REMARK  266 active torsions:
REMARK  status: ('A' for Active; 'I' for Inactive)
REMARK    1  A    between atoms: _1  and  _3
REMARK    2  A    between atoms: _3  and  _4
REMARK    3  A    between atoms: _6  and  _8
REMARK    4  A    between atoms: _8  and  _9
REMARK    5  A    between atoms: _8  and  _11
REMARK    6  A    between atoms: _14  and  _16
REMARK    7  A    between atoms: _16  and  _17
REMARK    8  A    between atoms: _16  and  _19
REMARK    9  A    between atoms: _19  and  _20
REMARK   10  A    between atoms: _25  and  _27
REMARK   11  A    between atoms: _27  and  _28
REMARK   12  A    between atoms: _27  and  _30
REMARK   13  A    between atoms: _30  and  _31
REMARK   14  A    between atoms: _36  and  _37
REMARK   15  A    between atoms: _40  and  _41
REMARK   16  A    between atoms: _46  and  _48
REMARK   17  A    between atoms: _48  and  _49
REMARK   18  A    between atoms: _48  and  _51
REMARK   19  A    between atoms: _51  and  _52
REMARK   20  A    between atoms: _52  and  _53
REMARK   21  A    between atoms: _55  and  _57
REMARK   22  A    between atoms: _57  and  _58
REMARK   23  A    between atoms: _57  and  _60
REMARK   24  A    between atoms: _60  and  _61
REMARK   25  A    between atoms: _66  and  _68
REMARK   26  A    between atoms: _68  and  _69
REMARK   27  A    between atoms: _68  and  _71
REMARK   28  A    between atoms: _71  and  _72
REMARK   29  A    between atoms: _72  and  ZN_650
REMARK   30  A    between atoms: _74  and  _75
REMARK   31  A    between atoms: _80  and  _82
REMARK   32  A    between atoms: _82  and  _83
REMARK   33  A    between atoms: _82  and  _85
REMARK   34  A    between atoms: _85  and  _86
REMARK   35  A    between atoms: _91  and  _93
REMARK   36  A    between atoms: _93  and  _94
REMARK   37  A    between atoms: _93  and  _96
REMARK   38  A    between atoms: _98  and  _100
REMARK   39  A    between atoms: _100  and  _101
REMARK   40  A    between atoms: _100  and  _103
REMARK   41  A    between atoms: _103  and  _104
REMARK   42  A    between atoms: _109  and  _111
REMARK   43  A    between atoms: _111  and  _112
REMARK   44  A    between atoms: _111  and  _114
REMARK   45  A    between atoms: _114  and  _115
REMARK   46  A    between atoms: _115  and  _116
REMARK   47  A    between atoms: _116  and  _117
REMARK   48  A    between atoms: _126  and  _128
REMARK   49  A    between atoms: _128  and  _129
REMARK   50  A    between atoms: _128  and  _131
REMARK   51  A    between atoms: _131  and  _132
REMARK   52  A    between atoms: _137  and  _139
REMARK   53  A    between atoms: _139  and  _140
REMARK   54  A    between atoms: _139  and  _142
REMARK   55  A    between atoms: _142  and  _143
REMARK   56  A    between atoms: _143  and  _144
REMARK   57  A    between atoms: _147  and  _149
REMARK   58  A    between atoms: _149  and  _150
REMARK   59  A    between atoms: _149  and  _152
REMARK   60  A    between atoms: _152  and  _153
REMARK   61  A    between atoms: _155  and  _157
REMARK   62  A    between atoms: _157  and  _158
REMARK   63  A    between atoms: _157  and  _160
REMARK   64  A    between atoms: _160  and  _161
REMARK   65  A    between atoms: _164  and  _166
REMARK   66  A    between atoms: _166  and  _167
REMARK   67  A    between atoms: _166  and  _169
REMARK   68  A    between atoms: _169  and  _170
REMARK   69  A    between atoms: _175  and  _177
REMARK   70  A    between atoms: _177  and  _178
REMARK   71  A    between atoms: _180  and  _182
REMARK   72  A    between atoms: _182  and  _183
REMARK   73  A    between atoms: _182  and  _185
REMARK   74  A    between atoms: _185  and  _186
REMARK   75  A    between atoms: _189  and  _191
REMARK   76  A    between atoms: _191  and  _192
REMARK   77  A    between atoms: _191  and  _194
REMARK   78  A    between atoms: _194  and  _195
REMARK   79  A    between atoms: _195  and  _196
REMARK   80  A    between atoms: _198  and  _200
REMARK   81  A    between atoms: _200  and  _201
REMARK   82  A    between atoms: _200  and  _203
REMARK   83  A    between atoms: _203  and  _204
REMARK   84  A    between atoms: _204  and  _205
REMARK   85  A    between atoms: _205  and  _206
REMARK   86  A    between atoms: _215  and  _217
REMARK   87  A    between atoms: _217  and  _218
REMARK   88  A    between atoms: _217  and  _220
REMARK   89  A    between atoms: _223  and  _225
REMARK   90  A    between atoms: _225  and  _226
REMARK   91  A    between atoms: _225  and  _228
REMARK   92  A    between atoms: _228  and  _229
REMARK   93  A    between atoms: _229  and  _230
REMARK   94  A    between atoms: _230  and  _231
REMARK   95  A    between atoms: _240  and  _242
REMARK   96  A    between atoms: _242  and  _243
REMARK   97  A    between atoms: _245  and  _247
REMARK   98  A    between atoms: _247  and  _248
REMARK   99  A    between atoms: _247  and  _250
REMARK  100  A    between atoms: _250  and  _251
REMARK  101  A    between atoms: _257  and  _259
REMARK  102  A    between atoms: _259  and  _260
REMARK  103  A    between atoms: _259  and  _262
REMARK  104  A    between atoms: _262  and  _263
REMARK  105  A    between atoms: _266  and  _268
REMARK  106  A    between atoms: _268  and  _269
REMARK  107  A    between atoms: _268  and  _271
REMARK  108  A    between atoms: _271  and  _272
REMARK  109  A    between atoms: _272  and  _273
REMARK  110  A    between atoms: _278  and  _280
REMARK  111  A    between atoms: _280  and  _281
REMARK  112  A    between atoms: _280  and  _283
REMARK  113  A    between atoms: _283  and  _284
REMARK  114  A    between atoms: _287  and  _289
REMARK  115  A    between atoms: _289  and  _290
REMARK  116  A    between atoms: _289  and  _292
REMARK  117  A    between atoms: _292  and  _293
REMARK  118  A    between atoms: _296  and  _298
REMARK  119  A    between atoms: _298  and  _299
REMARK  120  A    between atoms: _302  and  _304
REMARK  121  A    between atoms: _304  and  _305
REMARK  122  A    between atoms: _304  and  _307
REMARK  123  A    between atoms: _307  and  _308
REMARK  124  A    between atoms: _312  and  ZN_650
REMARK  125  A    between atoms: _313  and  _315
REMARK  126  A    between atoms: _315  and  _316
REMARK  127  A    between atoms: _315  and  _318
REMARK  128  A    between atoms: _318  and  _319
REMARK  129  A    between atoms: _322  and  _324
REMARK  130  A    between atoms: _324  and  _325
REMARK  131  A    between atoms: _324  and  _327
REMARK  132  A    between atoms: _327  and  _328
REMARK  133  A    between atoms: _330  and  _332
REMARK  134  A    between atoms: _332  and  _333
REMARK  135  A    between atoms: _332  and  _335
REMARK  136  A    between atoms: _335  and  _336
REMARK  137  A    between atoms: _336  and  _337
REMARK  138  A    between atoms: _340  and  _342
REMARK  139  A    between atoms: _342  and  _343
REMARK  140  A    between atoms: _345  and  _347
REMARK  141  A    between atoms: _347  and  _348
REMARK  142  A    between atoms: _351  and  _353
REMARK  143  A    between atoms: _353  and  _354
REMARK  144  A    between atoms: _353  and  _356
REMARK  145  A    between atoms: _356  and  _357
REMARK  146  A    between atoms: _363  and  _365
REMARK  147  A    between atoms: _365  and  _366
REMARK  148  A    between atoms: _365  and  _368
REMARK  149  A    between atoms: _368  and  _369
REMARK  150  A    between atoms: _374  and  _375
REMARK  151  A    between atoms: _377  and  _379
REMARK  152  A    between atoms: _379  and  _380
REMARK  153  A    between atoms: _379  and  _382
REMARK  154  A    between atoms: _382  and  _383
REMARK  155  A    between atoms: _383  and  _384
REMARK  156  A    between atoms: _384  and  _385
REMARK  157  A    between atoms: _385  and  _386
REMARK  158  A    between atoms: _390  and  _392
REMARK  159  A    between atoms: _392  and  _393
REMARK  160  A    between atoms: _392  and  _395
REMARK  161  A    between atoms: _395  and  _396
REMARK  162  A    between atoms: _399  and  _401
REMARK  163  A    between atoms: _401  and  _402
REMARK  164  A    between atoms: _401  and  _404
REMARK  165  A    between atoms: _404  and  _405
REMARK  166  A    between atoms: _405  and  _406
REMARK  167  A    between atoms: _409  and  _411
REMARK  168  A    between atoms: _411  and  _412
REMARK  169  A    between atoms: _411  and  _414
REMARK  170  A    between atoms: _414  and  _415
REMARK  171  A    between atoms: _425  and  _427
REMARK  172  A    between atoms: _427  and  _428
REMARK  173  A    between atoms: _427  and  _430
REMARK  174  A    between atoms: _430  and  _431
REMARK  175  A    between atoms: _431  and  _432
REMARK  176  A    between atoms: _437  and  _439
REMARK  177  A    between atoms: _439  and  _440
REMARK  178  A    between atoms: _439  and  _442
REMARK  179  A    between atoms: _444  and  _446
REMARK  180  A    between atoms: _446  and  _447
REMARK  181  A    between atoms: _449  and  _451
REMARK  182  A    between atoms: _451  and  _452
REMARK  183  A    between atoms: _451  and  _454
REMARK  184  A    between atoms: _454  and  _455
REMARK  185  A    between atoms: _458  and  _460
REMARK  186  A    between atoms: _460  and  _461
REMARK  187  A    between atoms: _460  and  _463
REMARK  188  A    between atoms: _466  and  _468
REMARK  189  A    between atoms: _468  and  _469
REMARK  190  A    between atoms: _468  and  _471
REMARK  191  A    between atoms: _471  and  _472
REMARK  192  A    between atoms: _472  and  _473
REMARK  193  A    between atoms: _478  and  _480
REMARK  194  A    between atoms: _480  and  _481
REMARK  195  A    between atoms: _480  and  _483
REMARK  196  A    between atoms: _483  and  _484
REMARK  197  A    between atoms: _487  and  _489
REMARK  198  A    between atoms: _489  and  _490
REMARK  199  A    between atoms: _489  and  _492
REMARK  200  A    between atoms: _492  and  _493
REMARK  201  A    between atoms: _496  and  _498
REMARK  202  A    between atoms: _498  and  _499
REMARK  203  A    between atoms: _498  and  _501
REMARK  204  A    between atoms: _501  and  _502
REMARK  205  A    between atoms: _502  and  _503
REMARK  206  A    between atoms: _505  and  _507
REMARK  207  A    between atoms: _507  and  _508
REMARK  208  A    between atoms: _507  and  _510
REMARK  209  A    between atoms: _510  and  _511
REMARK  210  A    between atoms: _514  and  _516
REMARK  211  A    between atoms: _516  and  _517
REMARK  212  A    between atoms: _516  and  _519
REMARK  213  A    between atoms: _519  and  _520
REMARK  214  A    between atoms: _521  and  ZN_650
REMARK  215  A    between atoms: _525  and  _527
REMARK  216  A    between atoms: _527  and  _528
REMARK  217  A    between atoms: _527  and  _530
REMARK  218  A    between atoms: _530  and  _531
REMARK  219  A    between atoms: _531  and  _532
REMARK  220  A    between atoms: _532  and  _533
REMARK  221  A    between atoms: _542  and  _544
REMARK  222  A    between atoms: _544  and  _545
REMARK  223  A    between atoms: _548  and  _550
REMARK  224  A    between atoms: _550  and  _551
REMARK  225  A    between atoms: _550  and  _553
REMARK  226  A    between atoms: _553  and  _554
REMARK  227  A    between atoms: _557  and  _559
REMARK  228  A    between atoms: _559  and  _560
REMARK  229  A    between atoms: _559  and  _562
REMARK  230  A    between atoms: _562  and  _563
REMARK  231  A    between atoms: _566  and  _568
REMARK  232  A    between atoms: _568  and  _569
REMARK  233  A    between atoms: _571  and  _573
REMARK  234  A    between atoms: _573  and  _574
REMARK  235  A    between atoms: _573  and  _576
REMARK  236  A    between atoms: _576  and  _577
REMARK  237  A    between atoms: _579  and  _581
REMARK  238  A    between atoms: _581  and  _582
REMARK  239  A    between atoms: _581  and  _584
REMARK  240  A    between atoms: _584  and  _585
REMARK  241  A    between atoms: _585  and  _586
REMARK  242  A    between atoms: _588  and  _590
REMARK  243  A    between atoms: _590  and  _591
REMARK  244  A    between atoms: _590  and  _593
REMARK  245  A    between atoms: _593  and  _594
REMARK  246  A    between atoms: _594  and  _595
REMARK  247  A    between atoms: _598  and  _600
REMARK  248  A    between atoms: _600  and  _601
REMARK  249  A    between atoms: _600  and  _603
REMARK  250  A    between atoms: _603  and  _604
REMARK  251  A    between atoms: _604  and  _605
REMARK  252  A    between atoms: _605  and  _606
REMARK  253  A    between atoms: _615  and  _617
REMARK  254  A    between atoms: _617  and  _618
REMARK  255  A    between atoms: _617  and  _620
REMARK  256  A    between atoms: _620  and  _621
REMARK  257  A    between atoms: _627  and  _629
REMARK  258  A    between atoms: _629  and  _630
REMARK  259  A    between atoms: _629  and  _632
REMARK  260  A    between atoms: _632  and  _633
REMARK  261  A    between atoms: _636  and  _638
REMARK  262  A    between atoms: _638  and  _639
REMARK  263  A    between atoms: _641  and  _643
REMARK  264  A    between atoms: _643  and  _644
REMARK  265  A    between atoms: _643  and  _646
REMARK  266  A    between atoms: _646  and  _647
REMARK                            x       y       z     vdW  Elec       q    Type
REMARK                         _______ _______ _______ _____ _____    ______ ____
ROOT
ATOM      1  O   HOH     1      12.637 -31.378 -16.676  0.00  0.00    +0.000 OA
ENDROOT
TORSDOF 0
REMARK  Name = ../refined-set-2016/4hws/4hws_pocket.pdb
REMARK  266 active torsions:
REMARK  status: ('A' for Active; 'I' for Inactive)
REMARK    1  A    between atoms: _1  and  _3
REMARK    2  A    between atoms: _3  and  _4
REMARK    3  A    between atoms: _6  and  _8
REMARK    4  A    between atoms: _8  and  _9
REMARK    5  A    between atoms: _8  and  _11
REMARK    6  A    between atoms: _14  and  _16
REMARK    7  A    between atoms: _16  and  _17
REMARK    8  A    between atoms: _16  and  _19
REMARK    9  A    between atoms: _19  and  _20
REMARK   10  A    between atoms: _25  and  _27
REMARK   11  A    between atoms: _27  and  _28
REMARK   12  A    between atoms: _27  and  _30
REMARK   13  A    between atoms: _30  and  _31
REMARK   14  A    between atoms: _36  and  _37
REMARK   15  A    between atoms: _40  and  _41
REMARK   16  A    between atoms: _46  and  _48
REMARK   17  A    between atoms: _48  and  _49
REMARK   18  A    between atoms: _48  and  _51
REMARK   19  A    between atoms: _51  and  _52
REMARK   20  A    between atoms: _52  and  _53
REMARK   21  A    between atoms: _55  and  _57
REMARK   22  A    between atoms: _57  and  _58
REMARK   23  A    between atoms: _57  and  _60
REMARK   24  A    between atoms: _60  and  _61
REMARK   25  A    between atoms: _66  and  _68
REMARK   26  A    between atoms: _68  and  _69
REMARK   27  A    between atoms: _68  and  _71
REMARK   28  A    between atoms: _71  and  _72
REMARK   29  A    between atoms: _72  and  ZN_650
REMARK   30  A    between atoms: _74  and  _75
REMARK   31  A    between atoms: _80  and  _82
REMARK   32  A    between atoms: _82  and  _83
REMARK   33  A    between atoms: _82  and  _85
REMARK   34  A    between atoms: _85  and  _86
REMARK   35  A    between atoms: _91  and  _93
REMARK   36  A    between atoms: _93  and  _94
REMARK   37  A    between atoms: _93  and  _96
REMARK   38  A    between atoms: _98  and  _100
REMARK   39  A    between atoms: _100  and  _101
REMARK   40  A    between atoms: _100  and  _103
REMARK   41  A    between atoms: _103  and  _104
REMARK   42  A    between atoms: _109  and  _111
REMARK   43  A    between atoms: _111  and  _112
REMARK   44  A    between atoms: _111  and  _114
REMARK   45  A    between atoms: _114  and  _115
REMARK   46  A    between atoms: _115  and  _116
REMARK   47  A    between atoms: _116  and  _117
REMARK   48  A    between atoms: _126  and  _128
REMARK   49  A    between atoms: _128  and  _129
REMARK   50  A    between atoms: _128  and  _131
REMARK   51  A    between atoms: _131  and  _132
REMARK   52  A    between atoms: _137  and  _139
REMARK   53  A    between atoms: _139  and  _140
REMARK   54  A    between atoms: _139  and  _142
REMARK   55  A    between atoms: _142  and  _143
REMARK   56  A    between atoms: _143  and  _144
REMARK   57  A    between atoms: _147  and  _149
REMARK   58  A    between atoms: _149  and  _150
REMARK   59  A    between atoms: _149  and  _152
REMARK   60  A    between atoms: _152  and  _153
REMARK   61  A    between atoms: _155  and  _157
REMARK   62  A    between atoms: _157  and  _158
REMARK   63  A    between atoms: _157  and  _160
REMARK   64  A    between atoms: _160  and  _161
REMARK   65  A    between atoms: _164  and  _166
REMARK   66  A    between atoms: _166  and  _167
REMARK   67  A    between atoms: _166  and  _169
REMARK   68  A    between atoms: _169  and  _170
REMARK   69  A    between atoms: _175  and  _177
REMARK   70  A    between atoms: _177  and  _178
REMARK   71  A    between atoms: _180  and  _182
REMARK   72  A    between atoms: _182  and  _183
REMARK   73  A    between atoms: _182  and  _185
REMARK   74  A    between atoms: _185  and  _186
REMARK   75  A    between atoms: _189  and  _191
REMARK   76  A    between atoms: _191  and  _192
REMARK   77  A    between atoms: _191  and  _194
REMARK   78  A    between atoms: _194  and  _195
REMARK   79  A    between atoms: _195  and  _196
REMARK   80  A    between atoms: _198  and  _200
REMARK   81  A    between atoms: _200  and  _201
REMARK   82  A    between atoms: _200  and  _203
REMARK   83  A    between atoms: _203  and  _204
REMARK   84  A    between atoms: _204  and  _205
REMARK   85  A    between atoms: _205  and  _206
REMARK   86  A    between atoms: _215  and  _217
REMARK   87  A    between atoms: _217  and  _218
REMARK   88  A    between atoms: _217  and  _220
REMARK   89  A    between atoms: _223  and  _225
REMARK   90  A    between atoms: _225  and  _226
REMARK   91  A    between atoms: _225  and  _228
REMARK   92  A    between atoms: _228  and  _229
REMARK   93  A    between atoms: _229  and  _230
REMARK   94  A    between atoms: _230  and  _231
REMARK   95  A    between atoms: _240  and  _242
REMARK   96  A    between atoms: _242  and  _243
REMARK   97  A    between atoms: _245  and  _247
REMARK   98  A    between atoms: _247  and  _248
REMARK   99  A    between atoms: _247  and  _250
REMARK  100  A    between atoms: _250  and  _251
REMARK  101  A    between atoms: _257  and  _259
REMARK  102  A    between atoms: _259  and  _260
REMARK  103  A    between atoms: _259  and  _262
REMARK  104  A    between atoms: _262  and  _263
REMARK  105  A    between atoms: _266  and  _268
REMARK  106  A    between atoms: _268  and  _269
REMARK  107  A    between atoms: _268  and  _271
REMARK  108  A    between atoms: _271  and  _272
REMARK  109  A    between atoms: _272  and  _273
REMARK  110  A    between atoms: _278  and  _280
REMARK  111  A    between atoms: _280  and  _281
REMARK  112  A    between atoms: _280  and  _283
REMARK  113  A    between atoms: _283  and  _284
REMARK  114  A    between atoms: _287  and  _289
REMARK  115  A    between atoms: _289  and  _290
REMARK  116  A    between atoms: _289  and  _292
REMARK  117  A    between atoms: _292  and  _293
REMARK  118  A    between atoms: _296  and  _298
REMARK  119  A    between atoms: _298  and  _299
REMARK  120  A    between atoms: _302  and  _304
REMARK  121  A    between atoms: _304  and  _305
REMARK  122  A    between atoms: _304  and  _307
REMARK  123  A    between atoms: _307  and  _308
REMARK  124  A    between atoms: _312  and  ZN_650
REMARK  125  A    between atoms: _313  and  _315
REMARK  126  A    between atoms: _315  and  _316
REMARK  127  A    between atoms: _315  and  _318
REMARK  128  A    between atoms: _318  and  _319
REMARK  129  A    between atoms: _322  and  _324
REMARK  130  A    between atoms: _324  and  _325
REMARK  131  A    between atoms: _324  and  _327
REMARK  132  A    between atoms: _327  and  _328
REMARK  133  A    between atoms: _330  and  _332
REMARK  134  A    between atoms: _332  and  _333
REMARK  135  A    between atoms: _332  and  _335
REMARK  136  A    between atoms: _335  and  _336
REMARK  137  A    between atoms: _336  and  _337
REMARK  138  A    between atoms: _340  and  _342
REMARK  139  A    between atoms: _342  and  _343
REMARK  140  A    between atoms: _345  and  _347
REMARK  141  A    between atoms: _347  and  _348
REMARK  142  A    between atoms: _351  and  _353
REMARK  143  A    between atoms: _353  and  _354
REMARK  144  A    between atoms: _353  and  _356
REMARK  145  A    between atoms: _356  and  _357
REMARK  146  A    between atoms: _363  and  _365
REMARK  147  A    between atoms: _365  and  _366
REMARK  148  A    between atoms: _365  and  _368
REMARK  149  A    between atoms: _368  and  _369
REMARK  150  A    between atoms: _374  and  _375
REMARK  151  A    between atoms: _377  and  _379
REMARK  152  A    between atoms: _379  and  _380
REMARK  153  A    between atoms: _379  and  _382
REMARK  154  A    between atoms: _382  and  _383
REMARK  155  A    between atoms: _383  and  _384
REMARK  156  A    between atoms: _384  and  _385
REMARK  157  A    between atoms: _385  and  _386
REMARK  158  A    between atoms: _390  and  _392
REMARK  159  A    between atoms: _392  and  _393
REMARK  160  A    between atoms: _392  and  _395
REMARK  161  A    between atoms: _395  and  _396
REMARK  162  A    between atoms: _399  and  _401
REMARK  163  A    between atoms: _401  and  _402
REMARK  164  A    between atoms: _401  and  _404
REMARK  165  A    between atoms: _404  and  _405
REMARK  166  A    between atoms: _405  and  _406
REMARK  167  A    between atoms: _409  and  _411
REMARK  168  A    between atoms: _411  and  _412
REMARK  169  A    between atoms: _411  and  _414
REMARK  170  A    between atoms: _414  and  _415
REMARK  171  A    between atoms: _425  and  _427
REMARK  172  A    between atoms: _427  and  _428
REMARK  173  A    between atoms: _427  and  _430
REMARK  174  A    between atoms: _430  and  _431
REMARK  175  A    between atoms: _431  and  _432
REMARK  176  A    between atoms: _437  and  _439
REMARK  177  A    between atoms: _439  and  _440
REMARK  178  A    between atoms: _439  and  _442
REMARK  179  A    between atoms: _444  and  _446
REMARK  180  A    between atoms: _446  and  _447
REMARK  181  A    between atoms: _449  and  _451
REMARK  182  A    between atoms: _451  and  _452
REMARK  183  A    between atoms: _451  and  _454
REMARK  184  A    between atoms: _454  and  _455
REMARK  185  A    between atoms: _458  and  _460
REMARK  186  A    between atoms: _460  and  _461
REMARK  187  A    between atoms: _460  and  _463
REMARK  188  A    between atoms: _466  and  _468
REMARK  189  A    between atoms: _468  and  _469
REMARK  190  A    between atoms: _468  and  _471
REMARK  191  A    between atoms: _471  and  _472
REMARK  192  A    between atoms: _472  and  _473
REMARK  193  A    between atoms: _478  and  _480
REMARK  194  A    between atoms: _480  and  _481
REMARK  195  A    between atoms: _480  and  _483
REMARK  196  A    between atoms: _483  and  _484
REMARK  197  A    between atoms: _487  and  _489
REMARK  198  A    between atoms: _489  and  _490
REMARK  199  A    between atoms: _489  and  _492
REMARK  200  A    between atoms: _492  and  _493
REMARK  201  A    between atoms: _496  and  _498
REMARK  202  A    between atoms: _498  and  _499
REMARK  203  A    between atoms: _498  and  _501
REMARK  204  A    between atoms: _501  and  _502
REMARK  205  A    between atoms: _502  and  _503
REMARK  206  A    between atoms: _505  and  _507
REMARK  207  A    between atoms: _507  and  _508
REMARK  208  A    between atoms: _507  and  _510
REMARK  209  A    between atoms: _510  and  _511
REMARK  210  A    between atoms: _514  and  _516
REMARK  211  A    between atoms: _516  and  _517
REMARK  212  A    between atoms: _516  and  _519
REMARK  213  A    between atoms: _519  and  _520
REMARK  214  A    between atoms: _521  and  ZN_650
REMARK  215  A    between atoms: _525  and  _527
REMARK  216  A    between atoms: _527  and  _528
REMARK  217  A    between atoms: _527  and  _530
REMARK  218  A    between atoms: _530  and  _531
REMARK  219  A    between atoms: _531  and  _532
REMARK  220  A    between atoms: _532  and  _533
REMARK  221  A    between atoms: _542  and  _544
REMARK  222  A    between atoms: _544  and  _545
REMARK  223  A    between atoms: _548  and  _550
REMARK  224  A    between atoms: _550  and  _551
REMARK  225  A    between atoms: _550  and  _553
REMARK  226  A    between atoms: _553  and  _554
REMARK  227  A    between atoms: _557  and  _559
REMARK  228  A    between atoms: _559  and  _560
REMARK  229  A    between atoms: _559  and  _562
REMARK  230  A    between atoms: _562  and  _563
REMARK  231  A    between atoms: _566  and  _568
REMARK  232  A    between atoms: _568  and  _569
REMARK  233  A    between atoms: _571  and  _573
REMARK  234  A    between atoms: _573  and  _574
REMARK  235  A    between atoms: _573  and  _576
REMARK  236  A    between atoms: _576  and  _577
REMARK  237  A    between atoms: _579  and  _581
REMARK  238  A    between atoms: _581  and  _582
REMARK  239  A    between atoms: _581  and  _584
REMARK  240  A    between atoms: _584  and  _585
REMARK  241  A    between atoms: _585  and  _586
REMARK  242  A    between atoms: _588  and  _590
REMARK  243  A    between atoms: _590  and  _591
REMARK  244  A    between atoms: _590  and  _593
REMARK  245  A    between atoms: _593  and  _594
REMARK  246  A    between atoms: _594  and  _595
REMARK  247  A    between atoms: _598  and  _600
REMARK  248  A    between atoms: _600  and  _601
REMARK  249  A    between atoms: _600  and  _603
REMARK  250  A    between atoms: _603  and  _604
REMARK  251  A    between atoms: _604  and  _605
REMARK  252  A    between atoms: _605  and  _606
REMARK  253  A    between atoms: _615  and  _617
REMARK  254  A    between atoms: _617  and  _618
REMARK  255  A    between atoms: _617  and  _620
REMARK  256  A    between atoms: _620  and  _621
REMARK  257  A    between atoms: _627  and  _629
REMARK  258  A    between atoms: _629  and  _630
REMARK  259  A    between atoms: _629  and  _632
REMARK  260  A    between atoms: _632  and  _633
REMARK  261  A    between atoms: _636  and  _638
REMARK  262  A    between atoms: _638  and  _639
REMARK  263  A    between atoms: _641  and  _643
REMARK  264  A    between atoms: _643  and  _644
REMARK  265  A    between atoms: _643  and  _646
REMARK  266  A    between atoms: _646  and  _647
REMARK                            x       y       z     vdW  Elec       q    Type
REMARK                         _______ _______ _______ _____ _____    ______ ____
ROOT
ATOM      1  O   HOH     1      20.122 -38.962 -23.581  0.00  0.00    +0.000 OA
ENDROOT
TORSDOF 0
REMARK  Name = ../refined-set-2016/4hws/4hws_pocket.pdb
REMARK  266 active torsions:
REMARK  status: ('A' for Active; 'I' for Inactive)
REMARK    1  A    between atoms: _1  and  _3
REMARK    2  A    between atoms: _3  and  _4
REMARK    3  A    between atoms: _6  and  _8
REMARK    4  A    between atoms: _8  and  _9
REMARK    5  A    between atoms: _8  and  _11
REMARK    6  A    between atoms: _14  and  _16
REMARK    7  A    between atoms: _16  and  _17
REMARK    8  A    between atoms: _16  and  _19
REMARK    9  A    between atoms: _19  and  _20
REMARK   10  A    between atoms: _25  and  _27
REMARK   11  A    between atoms: _27  and  _28
REMARK   12  A    between atoms: _27  and  _30
REMARK   13  A    between atoms: _30  and  _31
REMARK   14  A    between atoms: _36  and  _37
REMARK   15  A    between atoms: _40  and  _41
REMARK   16  A    between atoms: _46  and  _48
REMARK   17  A    between atoms: _48  and  _49
REMARK   18  A    between atoms: _48  and  _51
REMARK   19  A    between atoms: _51  and  _52
REMARK   20  A    between atoms: _52  and  _53
REMARK   21  A    between atoms: _55  and  _57
REMARK   22  A    between atoms: _57  and  _58
REMARK   23  A    between atoms: _57  and  _60
REMARK   24  A    between atoms: _60  and  _61
REMARK   25  A    between atoms: _66  and  _68
REMARK   26  A    between atoms: _68  and  _69
REMARK   27  A    between atoms: _68  and  _71
REMARK   28  A    between atoms: _71  and  _72
REMARK   29  A    between atoms: _72  and  ZN_650
REMARK   30  A    between atoms: _74  and  _75
REMARK   31  A    between atoms: _80  and  _82
REMARK   32  A    between atoms: _82  and  _83
REMARK   33  A    between atoms: _82  and  _85
REMARK   34  A    between atoms: _85  and  _86
REMARK   35  A    between atoms: _91  and  _93
REMARK   36  A    between atoms: _93  and  _94
REMARK   37  A    between atoms: _93  and  _96
REMARK   38  A    between atoms: _98  and  _100
REMARK   39  A    between atoms: _100  and  _101
REMARK   40  A    between atoms: _100  and  _103
REMARK   41  A    between atoms: _103  and  _104
REMARK   42  A    between atoms: _109  and  _111
REMARK   43  A    between atoms: _111  and  _112
REMARK   44  A    between atoms: _111  and  _114
REMARK   45  A    between atoms: _114  and  _115
REMARK   46  A    between atoms: _115  and  _116
REMARK   47  A    between atoms: _116  and  _117
REMARK   48  A    between atoms: _126  and  _128
REMARK   49  A    between atoms: _128  and  _129
REMARK   50  A    between atoms: _128  and  _131
REMARK   51  A    between atoms: _131  and  _132
REMARK   52  A    between atoms: _137  and  _139
REMARK   53  A    between atoms: _139  and  _140
REMARK   54  A    between atoms: _139  and  _142
REMARK   55  A    between atoms: _142  and  _143
REMARK   56  A    between atoms: _143  and  _144
REMARK   57  A    between atoms: _147  and  _149
REMARK   58  A    between atoms: _149  and  _150
REMARK   59  A    between atoms: _149  and  _152
REMARK   60  A    between atoms: _152  and  _153
REMARK   61  A    between atoms: _155  and  _157
REMARK   62  A    between atoms: _157  and  _158
REMARK   63  A    between atoms: _157  and  _160
REMARK   64  A    between atoms: _160  and  _161
REMARK   65  A    between atoms: _164  and  _166
REMARK   66  A    between atoms: _166  and  _167
REMARK   67  A    between atoms: _166  and  _169
REMARK   68  A    between atoms: _169  and  _170
REMARK   69  A    between atoms: _175  and  _177
REMARK   70  A    between atoms: _177  and  _178
REMARK   71  A    between atoms: _180  and  _182
REMARK   72  A    between atoms: _182  and  _183
REMARK   73  A    between atoms: _182  and  _185
REMARK   74  A    between atoms: _185  and  _186
REMARK   75  A    between atoms: _189  and  _191
REMARK   76  A    between atoms: _191  and  _192
REMARK   77  A    between atoms: _191  and  _194
REMARK   78  A    between atoms: _194  and  _195
REMARK   79  A    between atoms: _195  and  _196
REMARK   80  A    between atoms: _198  and  _200
REMARK   81  A    between atoms: _200  and  _201
REMARK   82  A    between atoms: _200  and  _203
REMARK   83  A    between atoms: _203  and  _204
REMARK   84  A    between atoms: _204  and  _205
REMARK   85  A    between atoms: _205  and  _206
REMARK   86  A    between atoms: _215  and  _217
REMARK   87  A    between atoms: _217  and  _218
REMARK   88  A    between atoms: _217  and  _220
REMARK   89  A    between atoms: _223  and  _225
REMARK   90  A    between atoms: _225  and  _226
REMARK   91  A    between atoms: _225  and  _228
REMARK   92  A    between atoms: _228  and  _229
REMARK   93  A    between atoms: _229  and  _230
REMARK   94  A    between atoms: _230  and  _231
REMARK   95  A    between atoms: _240  and  _242
REMARK   96  A    between atoms: _242  and  _243
REMARK   97  A    between atoms: _245  and  _247
REMARK   98  A    between atoms: _247  and  _248
REMARK   99  A    between atoms: _247  and  _250
REMARK  100  A    between atoms: _250  and  _251
REMARK  101  A    between atoms: _257  and  _259
REMARK  102  A    between atoms: _259  and  _260
REMARK  103  A    between atoms: _259  and  _262
REMARK  104  A    between atoms: _262  and  _263
REMARK  105  A    between atoms: _266  and  _268
REMARK  106  A    between atoms: _268  and  _269
REMARK  107  A    between atoms: _268  and  _271
REMARK  108  A    between atoms: _271  and  _272
REMARK  109  A    between atoms: _272  and  _273
REMARK  110  A    between atoms: _278  and  _280
REMARK  111  A    between atoms: _280  and  _281
REMARK  112  A    between atoms: _280  and  _283
REMARK  113  A    between atoms: _283  and  _284
REMARK  114  A    between atoms: _287  and  _289
REMARK  115  A    between atoms: _289  and  _290
REMARK  116  A    between atoms: _289  and  _292
REMARK  117  A    between atoms: _292  and  _293
REMARK  118  A    between atoms: _296  and  _298
REMARK  119  A    between atoms: _298  and  _299
REMARK  120  A    between atoms: _302  and  _304
REMARK  121  A    between atoms: _304  and  _305
REMARK  122  A    between atoms: _304  and  _307
REMARK  123  A    between atoms: _307  and  _308
REMARK  124  A    between atoms: _312  and  ZN_650
REMARK  125  A    between atoms: _313  and  _315
REMARK  126  A    between atoms: _315  and  _316
REMARK  127  A    between atoms: _315  and  _318
REMARK  128  A    between atoms: _318  and  _319
REMARK  129  A    between atoms: _322  and  _324
REMARK  130  A    between atoms: _324  and  _325
REMARK  131  A    between atoms: _324  and  _327
REMARK  132  A    between atoms: _327  and  _328
REMARK  133  A    between atoms: _330  and  _332
REMARK  134  A    between atoms: _332  and  _333
REMARK  135  A    between atoms: _332  and  _335
REMARK  136  A    between atoms: _335  and  _336
REMARK  137  A    between atoms: _336  and  _337
REMARK  138  A    between atoms: _340  and  _342
REMARK  139  A    between atoms: _342  and  _343
REMARK  140  A    between atoms: _345  and  _347
REMARK  141  A    between atoms: _347  and  _348
REMARK  142  A    between atoms: _351  and  _353
REMARK  143  A    between atoms: _353  and  _354
REMARK  144  A    between atoms: _353  and  _356
REMARK  145  A    between atoms: _356  and  _357
REMARK  146  A    between atoms: _363  and  _365
REMARK  147  A    between atoms: _365  and  _366
REMARK  148  A    between atoms: _365  and  _368
REMARK  149  A    between atoms: _368  and  _369
REMARK  150  A    between atoms: _374  and  _375
REMARK  151  A    between atoms: _377  and  _379
REMARK  152  A    between atoms: _379  and  _380
REMARK  153  A    between atoms: _379  and  _382
REMARK  154  A    between atoms: _382  and  _383
REMARK  155  A    between atoms: _383  and  _384
REMARK  156  A    between atoms: _384  and  _385
REMARK  157  A    between atoms: _385  and  _386
REMARK  158  A    between atoms: _390  and  _392
REMARK  159  A    between atoms: _392  and  _393
REMARK  160  A    between atoms: _392  and  _395
REMARK  161  A    between atoms: _395  and  _396
REMARK  162  A    between atoms: _399  and  _401
REMARK  163  A    between atoms: _401  and  _402
REMARK  164  A    between atoms: _401  and  _404
REMARK  165  A    between atoms: _404  and  _405
REMARK  166  A    between atoms: _405  and  _406
REMARK  167  A    between atoms: _409  and  _411
REMARK  168  A    between atoms: _411  and  _412
REMARK  169  A    between atoms: _411  and  _414
REMARK  170  A    between atoms: _414  and  _415
REMARK  171  A    between atoms: _425  and  _427
REMARK  172  A    between atoms: _427  and  _428
REMARK  173  A    between atoms: _427  and  _430
REMARK  174  A    between atoms: _430  and  _431
REMARK  175  A    between atoms: _431  and  _432
REMARK  176  A    between atoms: _437  and  _439
REMARK  177  A    between atoms: _439  and  _440
REMARK  178  A    between atoms: _439  and  _442
REMARK  179  A    between atoms: _444  and  _446
REMARK  180  A    between atoms: _446  and  _447
REMARK  181  A    between atoms: _449  and  _451
REMARK  182  A    between atoms: _451  and  _452
REMARK  183  A    between atoms: _451  and  _454
REMARK  184  A    between atoms: _454  and  _455
REMARK  185  A    between atoms: _458  and  _460
REMARK  186  A    between atoms: _460  and  _461
REMARK  187  A    between atoms: _460  and  _463
REMARK  188  A    between atoms: _466  and  _468
REMARK  189  A    between atoms: _468  and  _469
REMARK  190  A    between atoms: _468  and  _471
REMARK  191  A    between atoms: _471  and  _472
REMARK  192  A    between atoms: _472  and  _473
REMARK  193  A    between atoms: _478  and  _480
REMARK  194  A    between atoms: _480  and  _481
REMARK  195  A    between atoms: _480  and  _483
REMARK  196  A    between atoms: _483  and  _484
REMARK  197  A    between atoms: _487  and  _489
REMARK  198  A    between atoms: _489  and  _490
REMARK  199  A    between atoms: _489  and  _492
REMARK  200  A    between atoms: _492  and  _493
REMARK  201  A    between atoms: _496  and  _498
REMARK  202  A    between atoms: _498  and  _499
REMARK  203  A    between atoms: _498  and  _501
REMARK  204  A    between atoms: _501  and  _502
REMARK  205  A    between atoms: _502  and  _503
REMARK  206  A    between atoms: _505  and  _507
REMARK  207  A    between atoms: _507  and  _508
REMARK  208  A    between atoms: _507  and  _510
REMARK  209  A    between atoms: _510  and  _511
REMARK  210  A    between atoms: _514  and  _516
REMARK  211  A    between atoms: _516  and  _517
REMARK  212  A    between atoms: _516  and  _519
REMARK  213  A    between atoms: _519  and  _520
REMARK  214  A    between atoms: _521  and  ZN_650
REMARK  215  A    between atoms: _525  and  _527
REMARK  216  A    between atoms: _527  and  _528
REMARK  217  A    between atoms: _527  and  _530
REMARK  218  A    between atoms: _530  and  _531
REMARK  219  A    between atoms: _531  and  _532
REMARK  220  A    between atoms: _532  and  _533
REMARK  221  A    between atoms: _542  and  _544
REMARK  222  A    between atoms: _544  and  _545
REMARK  223  A    between atoms: _548  and  _550
REMARK  224  A    between atoms: _550  and  _551
REMARK  225  A    between atoms: _550  and  _553
REMARK  226  A    between atoms: _553  and  _554
REMARK  227  A    between atoms: _557  and  _559
REMARK  228  A    between atoms: _559  and  _560
REMARK  229  A    between atoms: _559  and  _562
REMARK  230  A    between atoms: _562  and  _563
REMARK  231  A    between atoms: _566  and  _568
REMARK  232  A    between atoms: _568  and  _569
REMARK  233  A    between atoms: _571  and  _573
REMARK  234  A    between atoms: _573  and  _574
REMARK  235  A    between atoms: _573  and  _576
REMARK  236  A    between atoms: _576  and  _577
REMARK  237  A    between atoms: _579  and  _581
REMARK  238  A    between atoms: _581  and  _582
REMARK  239  A    between atoms: _581  and  _584
REMARK  240  A    between atoms: _584  and  _585
REMARK  241  A    between atoms: _585  and  _586
REMARK  242  A    between atoms: _588  and  _590
REMARK  243  A    between atoms: _590  and  _591
REMARK  244  A    between atoms: _590  and  _593
REMARK  245  A    between atoms: _593  and  _594
REMARK  246  A    between atoms: _594  and  _595
REMARK  247  A    between atoms: _598  and  _600
REMARK  248  A    between atoms: _600  and  _601
REMARK  249  A    between atoms: _600  and  _603
REMARK  250  A    between atoms: _603  and  _604
REMARK  251  A    between atoms: _604  and  _605
REMARK  252  A    between atoms: _605  and  _606
REMARK  253  A    between atoms: _615  and  _617
REMARK  254  A    between atoms: _617  and  _618
REMARK  255  A    between atoms: _617  and  _620
REMARK  256  A    between atoms: _620  and  _621
REMARK  257  A    between atoms: _627  and  _629
REMARK  258  A    between atoms: _629  and  _630
REMARK  259  A    between atoms: _629  and  _632
REMARK  260  A    between atoms: _632  and  _633
REMARK  261  A    between atoms: _636  and  _638
REMARK  262  A    between atoms: _638  and  _639
REMARK  263  A    between atoms: _641  and  _643
REMARK  264  A    between atoms: _643  and  _644
REMARK  265  A    between atoms: _643  and  _646
REMARK  266  A    between atoms: _646  and  _647
REMARK                            x       y       z     vdW  Elec       q    Type
REMARK                         _______ _______ _______ _____ _____    ______ ____
ROOT
ATOM      1  O   HOH     1      29.732 -39.120 -14.155  0.00  0.00    +0.000 OA
ENDROOT
TORSDOF 0
REMARK  Name = ../refined-set-2016/4hws/4hws_pocket.pdb
REMARK  266 active torsions:
REMARK  status: ('A' for Active; 'I' for Inactive)
REMARK    1  A    between atoms: _1  and  _3
REMARK    2  A    between atoms: _3  and  _4
REMARK    3  A    between atoms: _6  and  _8
REMARK    4  A    between atoms: _8  and  _9
REMARK    5  A    between atoms: _8  and  _11
REMARK    6  A    between atoms: _14  and  _16
REMARK    7  A    between atoms: _16  and  _17
REMARK    8  A    between atoms: _16  and  _19
REMARK    9  A    between atoms: _19  and  _20
REMARK   10  A    between atoms: _25  and  _27
REMARK   11  A    between atoms: _27  and  _28
REMARK   12  A    between atoms: _27  and  _30
REMARK   13  A    between atoms: _30  and  _31
REMARK   14  A    between atoms: _36  and  _37
REMARK   15  A    between atoms: _40  and  _41
REMARK   16  A    between atoms: _46  and  _48
REMARK   17  A    between atoms: _48  and  _49
REMARK   18  A    between atoms: _48  and  _51
REMARK   19  A    between atoms: _51  and  _52
REMARK   20  A    between atoms: _52  and  _53
REMARK   21  A    between atoms: _55  and  _57
REMARK   22  A    between atoms: _57  and  _58
REMARK   23  A    between atoms: _57  and  _60
REMARK   24  A    between atoms: _60  and  _61
REMARK   25  A    between atoms: _66  and  _68
REMARK   26  A    between atoms: _68  and  _69
REMARK   27  A    between atoms: _68  and  _71
REMARK   28  A    between atoms: _71  and  _72
REMARK   29  A    between atoms: _72  and  ZN_650
REMARK   30  A    between atoms: _74  and  _75
REMARK   31  A    between atoms: _80  and  _82
REMARK   32  A    between atoms: _82  and  _83
REMARK   33  A    between atoms: _82  and  _85
REMARK   34  A    between atoms: _85  and  _86
REMARK   35  A    between atoms: _91  and  _93
REMARK   36  A    between atoms: _93  and  _94
REMARK   37  A    between atoms: _93  and  _96
REMARK   38  A    between atoms: _98  and  _100
REMARK   39  A    between atoms: _100  and  _101
REMARK   40  A    between atoms: _100  and  _103
REMARK   41  A    between atoms: _103  and  _104
REMARK   42  A    between atoms: _109  and  _111
REMARK   43  A    between atoms: _111  and  _112
REMARK   44  A    between atoms: _111  and  _114
REMARK   45  A    between atoms: _114  and  _115
REMARK   46  A    between atoms: _115  and  _116
REMARK   47  A    between atoms: _116  and  _117
REMARK   48  A    between atoms: _126  and  _128
REMARK   49  A    between atoms: _128  and  _129
REMARK   50  A    between atoms: _128  and  _131
REMARK   51  A    between atoms: _131  and  _132
REMARK   52  A    between atoms: _137  and  _139
REMARK   53  A    between atoms: _139  and  _140
REMARK   54  A    between atoms: _139  and  _142
REMARK   55  A    between atoms: _142  and  _143
REMARK   56  A    between atoms: _143  and  _144
REMARK   57  A    between atoms: _147  and  _149
REMARK   58  A    between atoms: _149  and  _150
REMARK   59  A    between atoms: _149  and  _152
REMARK   60  A    between atoms: _152  and  _153
REMARK   61  A    between atoms: _155  and  _157
REMARK   62  A    between atoms: _157  and  _158
REMARK   63  A    between atoms: _157  and  _160
REMARK   64  A    between atoms: _160  and  _161
REMARK   65  A    between atoms: _164  and  _166
REMARK   66  A    between atoms: _166  and  _167
REMARK   67  A    between atoms: _166  and  _169
REMARK   68  A    between atoms: _169  and  _170
REMARK   69  A    between atoms: _175  and  _177
REMARK   70  A    between atoms: _177  and  _178
REMARK   71  A    between atoms: _180  and  _182
REMARK   72  A    between atoms: _182  and  _183
REMARK   73  A    between atoms: _182  and  _185
REMARK   74  A    between atoms: _185  and  _186
REMARK   75  A    between atoms: _189  and  _191
REMARK   76  A    between atoms: _191  and  _192
REMARK   77  A    between atoms: _191  and  _194
REMARK   78  A    between atoms: _194  and  _195
REMARK   79  A    between atoms: _195  and  _196
REMARK   80  A    between atoms: _198  and  _200
REMARK   81  A    between atoms: _200  and  _201
REMARK   82  A    between atoms: _200  and  _203
REMARK   83  A    between atoms: _203  and  _204
REMARK   84  A    between atoms: _204  and  _205
REMARK   85  A    between atoms: _205  and  _206
REMARK   86  A    between atoms: _215  and  _217
REMARK   87  A    between atoms: _217  and  _218
REMARK   88  A    between atoms: _217  and  _220
REMARK   89  A    between atoms: _223  and  _225
REMARK   90  A    between atoms: _225  and  _226
REMARK   91  A    between atoms: _225  and  _228
REMARK   92  A    between atoms: _228  and  _229
REMARK   93  A    between atoms: _229  and  _230
REMARK   94  A    between atoms: _230  and  _231
REMARK   95  A    between atoms: _240  and  _242
REMARK   96  A    between atoms: _242  and  _243
REMARK   97  A    between atoms: _245  and  _247
REMARK   98  A    between atoms: _247  and  _248
REMARK   99  A    between atoms: _247  and  _250
REMARK  100  A    between atoms: _250  and  _251
REMARK  101  A    between atoms: _257  and  _259
REMARK  102  A    between atoms: _259  and  _260
REMARK  103  A    between atoms: _259  and  _262
REMARK  104  A    between atoms: _262  and  _263
REMARK  105  A    between atoms: _266  and  _268
REMARK  106  A    between atoms: _268  and  _269
REMARK  107  A    between atoms: _268  and  _271
REMARK  108  A    between atoms: _271  and  _272
REMARK  109  A    between atoms: _272  and  _273
REMARK  110  A    between atoms: _278  and  _280
REMARK  111  A    between atoms: _280  and  _281
REMARK  112  A    between atoms: _280  and  _283
REMARK  113  A    between atoms: _283  and  _284
REMARK  114  A    between atoms: _287  and  _289
REMARK  115  A    between atoms: _289  and  _290
REMARK  116  A    between atoms: _289  and  _292
REMARK  117  A    between atoms: _292  and  _293
REMARK  118  A    between atoms: _296  and  _298
REMARK  119  A    between atoms: _298  and  _299
REMARK  120  A    between atoms: _302  and  _304
REMARK  121  A    between atoms: _304  and  _305
REMARK  122  A    between atoms: _304  and  _307
REMARK  123  A    between atoms: _307  and  _308
REMARK  124  A    between atoms: _312  and  ZN_650
REMARK  125  A    between atoms: _313  and  _315
REMARK  126  A    between atoms: _315  and  _316
REMARK  127  A    between atoms: _315  and  _318
REMARK  128  A    between atoms: _318  and  _319
REMARK  129  A    between atoms: _322  and  _324
REMARK  130  A    between atoms: _324  and  _325
REMARK  131  A    between atoms: _324  and  _327
REMARK  132  A    between atoms: _327  and  _328
REMARK  133  A    between atoms: _330  and  _332
REMARK  134  A    between atoms: _332  and  _333
REMARK  135  A    between atoms: _332  and  _335
REMARK  136  A    between atoms: _335  and  _336
REMARK  137  A    between atoms: _336  and  _337
REMARK  138  A    between atoms: _340  and  _342
REMARK  139  A    between atoms: _342  and  _343
REMARK  140  A    between atoms: _345  and  _347
REMARK  141  A    between atoms: _347  and  _348
REMARK  142  A    between atoms: _351  and  _353
REMARK  143  A    between atoms: _353  and  _354
REMARK  144  A    between atoms: _353  and  _356
REMARK  145  A    between atoms: _356  and  _357
REMARK  146  A    between atoms: _363  and  _365
REMARK  147  A    between atoms: _365  and  _366
REMARK  148  A    between atoms: _365  and  _368
REMARK  149  A    between atoms: _368  and  _369
REMARK  150  A    between atoms: _374  and  _375
REMARK  151  A    between atoms: _377  and  _379
REMARK  152  A    between atoms: _379  and  _380
REMARK  153  A    between atoms: _379  and  _382
REMARK  154  A    between atoms: _382  and  _383
REMARK  155  A    between atoms: _383  and  _384
REMARK  156  A    between atoms: _384  and  _385
REMARK  157  A    between atoms: _385  and  _386
REMARK  158  A    between atoms: _390  and  _392
REMARK  159  A    between atoms: _392  and  _393
REMARK  160  A    between atoms: _392  and  _395
REMARK  161  A    between atoms: _395  and  _396
REMARK  162  A    between atoms: _399  and  _401
REMARK  163  A    between atoms: _401  and  _402
REMARK  164  A    between atoms: _401  and  _404
REMARK  165  A    between atoms: _404  and  _405
REMARK  166  A    between atoms: _405  and  _406
REMARK  167  A    between atoms: _409  and  _411
REMARK  168  A    between atoms: _411  and  _412
REMARK  169  A    between atoms: _411  and  _414
REMARK  170  A    between atoms: _414  and  _415
REMARK  171  A    between atoms: _425  and  _427
REMARK  172  A    between atoms: _427  and  _428
REMARK  173  A    between atoms: _427  and  _430
REMARK  174  A    between atoms: _430  and  _431
REMARK  175  A    between atoms: _431  and  _432
REMARK  176  A    between atoms: _437  and  _439
REMARK  177  A    between atoms: _439  and  _440
REMARK  178  A    between atoms: _439  and  _442
REMARK  179  A    between atoms: _444  and  _446
REMARK  180  A    between atoms: _446  and  _447
REMARK  181  A    between atoms: _449  and  _451
REMARK  182  A    between atoms: _451  and  _452
REMARK  183  A    between atoms: _451  and  _454
REMARK  184  A    between atoms: _454  and  _455
REMARK  185  A    between atoms: _458  and  _460
REMARK  186  A    between atoms: _460  and  _461
REMARK  187  A    between atoms: _460  and  _463
REMARK  188  A    between atoms: _466  and  _468
REMARK  189  A    between atoms: _468  and  _469
REMARK  190  A    between atoms: _468  and  _471
REMARK  191  A    between atoms: _471  and  _472
REMARK  192  A    between atoms: _472  and  _473
REMARK  193  A    between atoms: _478  and  _480
REMARK  194  A    between atoms: _480  and  _481
REMARK  195  A    between atoms: _480  and  _483
REMARK  196  A    between atoms: _483  and  _484
REMARK  197  A    between atoms: _487  and  _489
REMARK  198  A    between atoms: _489  and  _490
REMARK  199  A    between atoms: _489  and  _492
REMARK  200  A    between atoms: _492  and  _493
REMARK  201  A    between atoms: _496  and  _498
REMARK  202  A    between atoms: _498  and  _499
REMARK  203  A    between atoms: _498  and  _501
REMARK  204  A    between atoms: _501  and  _502
REMARK  205  A    between atoms: _502  and  _503
REMARK  206  A    between atoms: _505  and  _507
REMARK  207  A    between atoms: _507  and  _508
REMARK  208  A    between atoms: _507  and  _510
REMARK  209  A    between atoms: _510  and  _511
REMARK  210  A    between atoms: _514  and  _516
REMARK  211  A    between atoms: _516  and  _517
REMARK  212  A    between atoms: _516  and  _519
REMARK  213  A    between atoms: _519  and  _520
REMARK  214  A    between atoms: _521  and  ZN_650
REMARK  215  A    between atoms: _525  and  _527
REMARK  216  A    between atoms: _527  and  _528
REMARK  217  A    between atoms: _527  and  _530
REMARK  218  A    between atoms: _530  and  _531
REMARK  219  A    between atoms: _531  and  _532
REMARK  220  A    between atoms: _532  and  _533
REMARK  221  A    between atoms: _542  and  _544
REMARK  222  A    between atoms: _544  and  _545
REMARK  223  A    between atoms: _548  and  _550
REMARK  224  A    between atoms: _550  and  _551
REMARK  225  A    between atoms: _550  and  _553
REMARK  226  A    between atoms: _553  and  _554
REMARK  227  A    between atoms: _557  and  _559
REMARK  228  A    between atoms: _559  and  _560
REMARK  229  A    between atoms: _559  and  _562
REMARK  230  A    between atoms: _562  and  _563
REMARK  231  A    between atoms: _566  and  _568
REMARK  232  A    between atoms: _568  and  _569
REMARK  233  A    between atoms: _571  and  _573
REMARK  234  A    between atoms: _573  and  _574
REMARK  235  A    between atoms: _573  and  _576
REMARK  236  A    between atoms: _576  and  _577
REMARK  237  A    between atoms: _579  and  _581
REMARK  238  A    between atoms: _581  and  _582
REMARK  239  A    between atoms: _581  and  _584
REMARK  240  A    between atoms: _584  and  _585
REMARK  241  A    between atoms: _585  and  _586
REMARK  242  A    between atoms: _588  and  _590
REMARK  243  A    between atoms: _590  and  _591
REMARK  244  A    between atoms: _590  and  _593
REMARK  245  A    between atoms: _593  and  _594
REMARK  246  A    between atoms: _594  and  _595
REMARK  247  A    between atoms: _598  and  _600
REMARK  248  A    between atoms: _600  and  _601
REMARK  249  A    between atoms: _600  and  _603
REMARK  250  A    between atoms: _603  and  _604
REMARK  251  A    between atoms: _604  and  _605
REMARK  252  A    between atoms: _605  and  _606
REMARK  253  A    between atoms: _615  and  _617
REMARK  254  A    between atoms: _617  and  _618
REMARK  255  A    between atoms: _617  and  _620
REMARK  256  A    between atoms: _620  and  _621
REMARK  257  A    between atoms: _627  and  _629
REMARK  258  A    between atoms: _629  and  _630
REMARK  259  A    between atoms: _629  and  _632
REMARK  260  A    between atoms: _632  and  _633
REMARK  261  A    between atoms: _636  and  _638
REMARK  262  A    between atoms: _638  and  _639
REMARK  263  A    between atoms: _641  and  _643
REMARK  264  A    between atoms: _643  and  _644
REMARK  265  A    between atoms: _643  and  _646
REMARK  266  A    between atoms: _646  and  _647
REMARK                            x       y       z     vdW  Elec       q    Type
REMARK                         _______ _______ _______ _____ _____    ______ ____
ROOT
ATOM      1  O   HOH     1      18.650 -44.746 -18.232  0.00  0.00    +0.000 OA
ENDROOT
TORSDOF 0
REMARK  Name = ../refined-set-2016/4hws/4hws_pocket.pdb
REMARK  266 active torsions:
REMARK  status: ('A' for Active; 'I' for Inactive)
REMARK    1  A    between atoms: _1  and  _3
REMARK    2  A    between atoms: _3  and  _4
REMARK    3  A    between atoms: _6  and  _8
REMARK    4  A    between atoms: _8  and  _9
REMARK    5  A    between atoms: _8  and  _11
REMARK    6  A    between atoms: _14  and  _16
REMARK    7  A    between atoms: _16  and  _17
REMARK    8  A    between atoms: _16  and  _19
REMARK    9  A    between atoms: _19  and  _20
REMARK   10  A    between atoms: _25  and  _27
REMARK   11  A    between atoms: _27  and  _28
REMARK   12  A    between atoms: _27  and  _30
REMARK   13  A    between atoms: _30  and  _31
REMARK   14  A    between atoms: _36  and  _37
REMARK   15  A    between atoms: _40  and  _41
REMARK   16  A    between atoms: _46  and  _48
REMARK   17  A    between atoms: _48  and  _49
REMARK   18  A    between atoms: _48  and  _51
REMARK   19  A    between atoms: _51  and  _52
REMARK   20  A    between atoms: _52  and  _53
REMARK   21  A    between atoms: _55  and  _57
REMARK   22  A    between atoms: _57  and  _58
REMARK   23  A    between atoms: _57  and  _60
REMARK   24  A    between atoms: _60  and  _61
REMARK   25  A    between atoms: _66  and  _68
REMARK   26  A    between atoms: _68  and  _69
REMARK   27  A    between atoms: _68  and  _71
REMARK   28  A    between atoms: _71  and  _72
REMARK   29  A    between atoms: _72  and  ZN_650
REMARK   30  A    between atoms: _74  and  _75
REMARK   31  A    between atoms: _80  and  _82
REMARK   32  A    between atoms: _82  and  _83
REMARK   33  A    between atoms: _82  and  _85
REMARK   34  A    between atoms: _85  and  _86
REMARK   35  A    between atoms: _91  and  _93
REMARK   36  A    between atoms: _93  and  _94
REMARK   37  A    between atoms: _93  and  _96
REMARK   38  A    between atoms: _98  and  _100
REMARK   39  A    between atoms: _100  and  _101
REMARK   40  A    between atoms: _100  and  _103
REMARK   41  A    between atoms: _103  and  _104
REMARK   42  A    between atoms: _109  and  _111
REMARK   43  A    between atoms: _111  and  _112
REMARK   44  A    between atoms: _111  and  _114
REMARK   45  A    between atoms: _114  and  _115
REMARK   46  A    between atoms: _115  and  _116
REMARK   47  A    between atoms: _116  and  _117
REMARK   48  A    between atoms: _126  and  _128
REMARK   49  A    between atoms: _128  and  _129
REMARK   50  A    between atoms: _128  and  _131
REMARK   51  A    between atoms: _131  and  _132
REMARK   52  A    between atoms: _137  and  _139
REMARK   53  A    between atoms: _139  and  _140
REMARK   54  A    between atoms: _139  and  _142
REMARK   55  A    between atoms: _142  and  _143
REMARK   56  A    between atoms: _143  and  _144
REMARK   57  A    between atoms: _147  and  _149
REMARK   58  A    between atoms: _149  and  _150
REMARK   59  A    between atoms: _149  and  _152
REMARK   60  A    between atoms: _152  and  _153
REMARK   61  A    between atoms: _155  and  _157
REMARK   62  A    between atoms: _157  and  _158
REMARK   63  A    between atoms: _157  and  _160
REMARK   64  A    between atoms: _160  and  _161
REMARK   65  A    between atoms: _164  and  _166
REMARK   66  A    between atoms: _166  and  _167
REMARK   67  A    between atoms: _166  and  _169
REMARK   68  A    between atoms: _169  and  _170
REMARK   69  A    between atoms: _175  and  _177
REMARK   70  A    between atoms: _177  and  _178
REMARK   71  A    between atoms: _180  and  _182
REMARK   72  A    between atoms: _182  and  _183
REMARK   73  A    between atoms: _182  and  _185
REMARK   74  A    between atoms: _185  and  _186
REMARK   75  A    between atoms: _189  and  _191
REMARK   76  A    between atoms: _191  and  _192
REMARK   77  A    between atoms: _191  and  _194
REMARK   78  A    between atoms: _194  and  _195
REMARK   79  A    between atoms: _195  and  _196
REMARK   80  A    between atoms: _198  and  _200
REMARK   81  A    between atoms: _200  and  _201
REMARK   82  A    between atoms: _200  and  _203
REMARK   83  A    between atoms: _203  and  _204
REMARK   84  A    between atoms: _204  and  _205
REMARK   85  A    between atoms: _205  and  _206
REMARK   86  A    between atoms: _215  and  _217
REMARK   87  A    between atoms: _217  and  _218
REMARK   88  A    between atoms: _217  and  _220
REMARK   89  A    between atoms: _223  and  _225
REMARK   90  A    between atoms: _225  and  _226
REMARK   91  A    between atoms: _225  and  _228
REMARK   92  A    between atoms: _228  and  _229
REMARK   93  A    between atoms: _229  and  _230
REMARK   94  A    between atoms: _230  and  _231
REMARK   95  A    between atoms: _240  and  _242
REMARK   96  A    between atoms: _242  and  _243
REMARK   97  A    between atoms: _245  and  _247
REMARK   98  A    between atoms: _247  and  _248
REMARK   99  A    between atoms: _247  and  _250
REMARK  100  A    between atoms: _250  and  _251
REMARK  101  A    between atoms: _257  and  _259
REMARK  102  A    between atoms: _259  and  _260
REMARK  103  A    between atoms: _259  and  _262
REMARK  104  A    between atoms: _262  and  _263
REMARK  105  A    between atoms: _266  and  _268
REMARK  106  A    between atoms: _268  and  _269
REMARK  107  A    between atoms: _268  and  _271
REMARK  108  A    between atoms: _271  and  _272
REMARK  109  A    between atoms: _272  and  _273
REMARK  110  A    between atoms: _278  and  _280
REMARK  111  A    between atoms: _280  and  _281
REMARK  112  A    between atoms: _280  and  _283
REMARK  113  A    between atoms: _283  and  _284
REMARK  114  A    between atoms: _287  and  _289
REMARK  115  A    between atoms: _289  and  _290
REMARK  116  A    between atoms: _289  and  _292
REMARK  117  A    between atoms: _292  and  _293
REMARK  118  A    between atoms: _296  and  _298
REMARK  119  A    between atoms: _298  and  _299
REMARK  120  A    between atoms: _302  and  _304
REMARK  121  A    between atoms: _304  and  _305
REMARK  122  A    between atoms: _304  and  _307
REMARK  123  A    between atoms: _307  and  _308
REMARK  124  A    between atoms: _312  and  ZN_650
REMARK  125  A    between atoms: _313  and  _315
REMARK  126  A    between atoms: _315  and  _316
REMARK  127  A    between atoms: _315  and  _318
REMARK  128  A    between atoms: _318  and  _319
REMARK  129  A    between atoms: _322  and  _324
REMARK  130  A    between atoms: _324  and  _325
REMARK  131  A    between atoms: _324  and  _327
REMARK  132  A    between atoms: _327  and  _328
REMARK  133  A    between atoms: _330  and  _332
REMARK  134  A    between atoms: _332  and  _333
REMARK  135  A    between atoms: _332  and  _335
REMARK  136  A    between atoms: _335  and  _336
REMARK  137  A    between atoms: _336  and  _337
REMARK  138  A    between atoms: _340  and  _342
REMARK  139  A    between atoms: _342  and  _343
REMARK  140  A    between atoms: _345  and  _347
REMARK  141  A    between atoms: _347  and  _348
REMARK  142  A    between atoms: _351  and  _353
REMARK  143  A    between atoms: _353  and  _354
REMARK  144  A    between atoms: _353  and  _356
REMARK  145  A    between atoms: _356  and  _357
REMARK  146  A    between atoms: _363  and  _365
REMARK  147  A    between atoms: _365  and  _366
REMARK  148  A    between atoms: _365  and  _368
REMARK  149  A    between atoms: _368  and  _369
REMARK  150  A    between atoms: _374  and  _375
REMARK  151  A    between atoms: _377  and  _379
REMARK  152  A    between atoms: _379  and  _380
REMARK  153  A    between atoms: _379  and  _382
REMARK  154  A    between atoms: _382  and  _383
REMARK  155  A    between atoms: _383  and  _384
REMARK  156  A    between atoms: _384  and  _385
REMARK  157  A    between atoms: _385  and  _386
REMARK  158  A    between atoms: _390  and  _392
REMARK  159  A    between atoms: _392  and  _393
REMARK  160  A    between atoms: _392  and  _395
REMARK  161  A    between atoms: _395  and  _396
REMARK  162  A    between atoms: _399  and  _401
REMARK  163  A    between atoms: _401  and  _402
REMARK  164  A    between atoms: _401  and  _404
REMARK  165  A    between atoms: _404  and  _405
REMARK  166  A    between atoms: _405  and  _406
REMARK  167  A    between atoms: _409  and  _411
REMARK  168  A    between atoms: _411  and  _412
REMARK  169  A    between atoms: _411  and  _414
REMARK  170  A    between atoms: _414  and  _415
REMARK  171  A    between atoms: _425  and  _427
REMARK  172  A    between atoms: _427  and  _428
REMARK  173  A    between atoms: _427  and  _430
REMARK  174  A    between atoms: _430  and  _431
REMARK  175  A    between atoms: _431  and  _432
REMARK  176  A    between atoms: _437  and  _439
REMARK  177  A    between atoms: _439  and  _440
REMARK  178  A    between atoms: _439  and  _442
REMARK  179  A    between atoms: _444  and  _446
REMARK  180  A    between atoms: _446  and  _447
REMARK  181  A    between atoms: _449  and  _451
REMARK  182  A    between atoms: _451  and  _452
REMARK  183  A    between atoms: _451  and  _454
REMARK  184  A    between atoms: _454  and  _455
REMARK  185  A    between atoms: _458  and  _460
REMARK  186  A    between atoms: _460  and  _461
REMARK  187  A    between atoms: _460  and  _463
REMARK  188  A    between atoms: _466  and  _468
REMARK  189  A    between atoms: _468  and  _469
REMARK  190  A    between atoms: _468  and  _471
REMARK  191  A    between atoms: _471  and  _472
REMARK  192  A    between atoms: _472  and  _473
REMARK  193  A    between atoms: _478  and  _480
REMARK  194  A    between atoms: _480  and  _481
REMARK  195  A    between atoms: _480  and  _483
REMARK  196  A    between atoms: _483  and  _484
REMARK  197  A    between atoms: _487  and  _489
REMARK  198  A    between atoms: _489  and  _490
REMARK  199  A    between atoms: _489  and  _492
REMARK  200  A    between atoms: _492  and  _493
REMARK  201  A    between atoms: _496  and  _498
REMARK  202  A    between atoms: _498  and  _499
REMARK  203  A    between atoms: _498  and  _501
REMARK  204  A    between atoms: _501  and  _502
REMARK  205  A    between atoms: _502  and  _503
REMARK  206  A    between atoms: _505  and  _507
REMARK  207  A    between atoms: _507  and  _508
REMARK  208  A    between atoms: _507  and  _510
REMARK  209  A    between atoms: _510  and  _511
REMARK  210  A    between atoms: _514  and  _516
REMARK  211  A    between atoms: _516  and  _517
REMARK  212  A    between atoms: _516  and  _519
REMARK  213  A    between atoms: _519  and  _520
REMARK  214  A    between atoms: _521  and  ZN_650
REMARK  215  A    between atoms: _525  and  _527
REMARK  216  A    between atoms: _527  and  _528
REMARK  217  A    between atoms: _527  and  _530
REMARK  218  A    between atoms: _530  and  _531
REMARK  219  A    between atoms: _531  and  _532
REMARK  220  A    between atoms: _532  and  _533
REMARK  221  A    between atoms: _542  and  _544
REMARK  222  A    between atoms: _544  and  _545
REMARK  223  A    between atoms: _548  and  _550
REMARK  224  A    between atoms: _550  and  _551
REMARK  225  A    between atoms: _550  and  _553
REMARK  226  A    between atoms: _553  and  _554
REMARK  227  A    between atoms: _557  and  _559
REMARK  228  A    between atoms: _559  and  _560
REMARK  229  A    between atoms: _559  and  _562
REMARK  230  A    between atoms: _562  and  _563
REMARK  231  A    between atoms: _566  and  _568
REMARK  232  A    between atoms: _568  and  _569
REMARK  233  A    between atoms: _571  and  _573
REMARK  234  A    between atoms: _573  and  _574
REMARK  235  A    between atoms: _573  and  _576
REMARK  236  A    between atoms: _576  and  _577
REMARK  237  A    between atoms: _579  and  _581
REMARK  238  A    between atoms: _581  and  _582
REMARK  239  A    between atoms: _581  and  _584
REMARK  240  A    between atoms: _584  and  _585
REMARK  241  A    between atoms: _585  and  _586
REMARK  242  A    between atoms: _588  and  _590
REMARK  243  A    between atoms: _590  and  _591
REMARK  244  A    between atoms: _590  and  _593
REMARK  245  A    between atoms: _593  and  _594
REMARK  246  A    between atoms: _594  and  _595
REMARK  247  A    between atoms: _598  and  _600
REMARK  248  A    between atoms: _600  and  _601
REMARK  249  A    between atoms: _600  and  _603
REMARK  250  A    between atoms: _603  and  _604
REMARK  251  A    between atoms: _604  and  _605
REMARK  252  A    between atoms: _605  and  _606
REMARK  253  A    between atoms: _615  and  _617
REMARK  254  A    between atoms: _617  and  _618
REMARK  255  A    between atoms: _617  and  _620
REMARK  256  A    between atoms: _620  and  _621
REMARK  257  A    between atoms: _627  and  _629
REMARK  258  A    between atoms: _629  and  _630
REMARK  259  A    between atoms: _629  and  _632
REMARK  260  A    between atoms: _632  and  _633
REMARK  261  A    between atoms: _636  and  _638
REMARK  262  A    between atoms: _638  and  _639
REMARK  263  A    between atoms: _641  and  _643
REMARK  264  A    between atoms: _643  and  _644
REMARK  265  A    between atoms: _643  and  _646
REMARK  266  A    between atoms: _646  and  _647
REMARK                            x       y       z     vdW  Elec       q    Type
REMARK                         _______ _______ _______ _____ _____    ______ ____
ROOT
ATOM      1  O   HOH     1      11.035 -43.475 -12.688  0.00  0.00    +0.000 OA
ENDROOT
TORSDOF 0
REMARK  Name = ../refined-set-2016/4hws/4hws_pocket.pdb
REMARK  266 active torsions:
REMARK  status: ('A' for Active; 'I' for Inactive)
REMARK    1  A    between atoms: _1  and  _3
REMARK    2  A    between atoms: _3  and  _4
REMARK    3  A    between atoms: _6  and  _8
REMARK    4  A    between atoms: _8  and  _9
REMARK    5  A    between atoms: _8  and  _11
REMARK    6  A    between atoms: _14  and  _16
REMARK    7  A    between atoms: _16  and  _17
REMARK    8  A    between atoms: _16  and  _19
REMARK    9  A    between atoms: _19  and  _20
REMARK   10  A    between atoms: _25  and  _27
REMARK   11  A    between atoms: _27  and  _28
REMARK   12  A    between atoms: _27  and  _30
REMARK   13  A    between atoms: _30  and  _31
REMARK   14  A    between atoms: _36  and  _37
REMARK   15  A    between atoms: _40  and  _41
REMARK   16  A    between atoms: _46  and  _48
REMARK   17  A    between atoms: _48  and  _49
REMARK   18  A    between atoms: _48  and  _51
REMARK   19  A    between atoms: _51  and  _52
REMARK   20  A    between atoms: _52  and  _53
REMARK   21  A    between atoms: _55  and  _57
REMARK   22  A    between atoms: _57  and  _58
REMARK   23  A    between atoms: _57  and  _60
REMARK   24  A    between atoms: _60  and  _61
REMARK   25  A    between atoms: _66  and  _68
REMARK   26  A    between atoms: _68  and  _69
REMARK   27  A    between atoms: _68  and  _71
REMARK   28  A    between atoms: _71  and  _72
REMARK   29  A    between atoms: _72  and  ZN_650
REMARK   30  A    between atoms: _74  and  _75
REMARK   31  A    between atoms: _80  and  _82
REMARK   32  A    between atoms: _82  and  _83
REMARK   33  A    between atoms: _82  and  _85
REMARK   34  A    between atoms: _85  and  _86
REMARK   35  A    between atoms: _91  and  _93
REMARK   36  A    between atoms: _93  and  _94
REMARK   37  A    between atoms: _93  and  _96
REMARK   38  A    between atoms: _98  and  _100
REMARK   39  A    between atoms: _100  and  _101
REMARK   40  A    between atoms: _100  and  _103
REMARK   41  A    between atoms: _103  and  _104
REMARK   42  A    between atoms: _109  and  _111
REMARK   43  A    between atoms: _111  and  _112
REMARK   44  A    between atoms: _111  and  _114
REMARK   45  A    between atoms: _114  and  _115
REMARK   46  A    between atoms: _115  and  _116
REMARK   47  A    between atoms: _116  and  _117
REMARK   48  A    between atoms: _126  and  _128
REMARK   49  A    between atoms: _128  and  _129
REMARK   50  A    between atoms: _128  and  _131
REMARK   51  A    between atoms: _131  and  _132
REMARK   52  A    between atoms: _137  and  _139
REMARK   53  A    between atoms: _139  and  _140
REMARK   54  A    between atoms: _139  and  _142
REMARK   55  A    between atoms: _142  and  _143
REMARK   56  A    between atoms: _143  and  _144
REMARK   57  A    between atoms: _147  and  _149
REMARK   58  A    between atoms: _149  and  _150
REMARK   59  A    between atoms: _149  and  _152
REMARK   60  A    between atoms: _152  and  _153
REMARK   61  A    between atoms: _155  and  _157
REMARK   62  A    between atoms: _157  and  _158
REMARK   63  A    between atoms: _157  and  _160
REMARK   64  A    between atoms: _160  and  _161
REMARK   65  A    between atoms: _164  and  _166
REMARK   66  A    between atoms: _166  and  _167
REMARK   67  A    between atoms: _166  and  _169
REMARK   68  A    between atoms: _169  and  _170
REMARK   69  A    between atoms: _175  and  _177
REMARK   70  A    between atoms: _177  and  _178
REMARK   71  A    between atoms: _180  and  _182
REMARK   72  A    between atoms: _182  and  _183
REMARK   73  A    between atoms: _182  and  _185
REMARK   74  A    between atoms: _185  and  _186
REMARK   75  A    between atoms: _189  and  _191
REMARK   76  A    between atoms: _191  and  _192
REMARK   77  A    between atoms: _191  and  _194
REMARK   78  A    between atoms: _194  and  _195
REMARK   79  A    between atoms: _195  and  _196
REMARK   80  A    between atoms: _198  and  _200
REMARK   81  A    between atoms: _200  and  _201
REMARK   82  A    between atoms: _200  and  _203
REMARK   83  A    between atoms: _203  and  _204
REMARK   84  A    between atoms: _204  and  _205
REMARK   85  A    between atoms: _205  and  _206
REMARK   86  A    between atoms: _215  and  _217
REMARK   87  A    between atoms: _217  and  _218
REMARK   88  A    between atoms: _217  and  _220
REMARK   89  A    between atoms: _223  and  _225
REMARK   90  A    between atoms: _225  and  _226
REMARK   91  A    between atoms: _225  and  _228
REMARK   92  A    between atoms: _228  and  _229
REMARK   93  A    between atoms: _229  and  _230
REMARK   94  A    between atoms: _230  and  _231
REMARK   95  A    between atoms: _240  and  _242
REMARK   96  A    between atoms: _242  and  _243
REMARK   97  A    between atoms: _245  and  _247
REMARK   98  A    between atoms: _247  and  _248
REMARK   99  A    between atoms: _247  and  _250
REMARK  100  A    between atoms: _250  and  _251
REMARK  101  A    between atoms: _257  and  _259
REMARK  102  A    between atoms: _259  and  _260
REMARK  103  A    between atoms: _259  and  _262
REMARK  104  A    between atoms: _262  and  _263
REMARK  105  A    between atoms: _266  and  _268
REMARK  106  A    between atoms: _268  and  _269
REMARK  107  A    between atoms: _268  and  _271
REMARK  108  A    between atoms: _271  and  _272
REMARK  109  A    between atoms: _272  and  _273
REMARK  110  A    between atoms: _278  and  _280
REMARK  111  A    between atoms: _280  and  _281
REMARK  112  A    between atoms: _280  and  _283
REMARK  113  A    between atoms: _283  and  _284
REMARK  114  A    between atoms: _287  and  _289
REMARK  115  A    between atoms: _289  and  _290
REMARK  116  A    between atoms: _289  and  _292
REMARK  117  A    between atoms: _292  and  _293
REMARK  118  A    between atoms: _296  and  _298
REMARK  119  A    between atoms: _298  and  _299
REMARK  120  A    between atoms: _302  and  _304
REMARK  121  A    between atoms: _304  and  _305
REMARK  122  A    between atoms: _304  and  _307
REMARK  123  A    between atoms: _307  and  _308
REMARK  124  A    between atoms: _312  and  ZN_650
REMARK  125  A    between atoms: _313  and  _315
REMARK  126  A    between atoms: _315  and  _316
REMARK  127  A    between atoms: _315  and  _318
REMARK  128  A    between atoms: _318  and  _319
REMARK  129  A    between atoms: _322  and  _324
REMARK  130  A    between atoms: _324  and  _325
REMARK  131  A    between atoms: _324  and  _327
REMARK  132  A    between atoms: _327  and  _328
REMARK  133  A    between atoms: _330  and  _332
REMARK  134  A    between atoms: _332  and  _333
REMARK  135  A    between atoms: _332  and  _335
REMARK  136  A    between atoms: _335  and  _336
REMARK  137  A    between atoms: _336  and  _337
REMARK  138  A    between atoms: _340  and  _342
REMARK  139  A    between atoms: _342  and  _343
REMARK  140  A    between atoms: _345  and  _347
REMARK  141  A    between atoms: _347  and  _348
REMARK  142  A    between atoms: _351  and  _353
REMARK  143  A    between atoms: _353  and  _354
REMARK  144  A    between atoms: _353  and  _356
REMARK  145  A    between atoms: _356  and  _357
REMARK  146  A    between atoms: _363  and  _365
REMARK  147  A    between atoms: _365  and  _366
REMARK  148  A    between atoms: _365  and  _368
REMARK  149  A    between atoms: _368  and  _369
REMARK  150  A    between atoms: _374  and  _375
REMARK  151  A    between atoms: _377  and  _379
REMARK  152  A    between atoms: _379  and  _380
REMARK  153  A    between atoms: _379  and  _382
REMARK  154  A    between atoms: _382  and  _383
REMARK  155  A    between atoms: _383  and  _384
REMARK  156  A    between atoms: _384  and  _385
REMARK  157  A    between atoms: _385  and  _386
REMARK  158  A    between atoms: _390  and  _392
REMARK  159  A    between atoms: _392  and  _393
REMARK  160  A    between atoms: _392  and  _395
REMARK  161  A    between atoms: _395  and  _396
REMARK  162  A    between atoms: _399  and  _401
REMARK  163  A    between atoms: _401  and  _402
REMARK  164  A    between atoms: _401  and  _404
REMARK  165  A    between atoms: _404  and  _405
REMARK  166  A    between atoms: _405  and  _406
REMARK  167  A    between atoms: _409  and  _411
REMARK  168  A    between atoms: _411  and  _412
REMARK  169  A    between atoms: _411  and  _414
REMARK  170  A    between atoms: _414  and  _415
REMARK  171  A    between atoms: _425  and  _427
REMARK  172  A    between atoms: _427  and  _428
REMARK  173  A    between atoms: _427  and  _430
REMARK  174  A    between atoms: _430  and  _431
REMARK  175  A    between atoms: _431  and  _432
REMARK  176  A    between atoms: _437  and  _439
REMARK  177  A    between atoms: _439  and  _440
REMARK  178  A    between atoms: _439  and  _442
REMARK  179  A    between atoms: _444  and  _446
REMARK  180  A    between atoms: _446  and  _447
REMARK  181  A    between atoms: _449  and  _451
REMARK  182  A    between atoms: _451  and  _452
REMARK  183  A    between atoms: _451  and  _454
REMARK  184  A    between atoms: _454  and  _455
REMARK  185  A    between atoms: _458  and  _460
REMARK  186  A    between atoms: _460  and  _461
REMARK  187  A    between atoms: _460  and  _463
REMARK  188  A    between atoms: _466  and  _468
REMARK  189  A    between atoms: _468  and  _469
REMARK  190  A    between atoms: _468  and  _471
REMARK  191  A    between atoms: _471  and  _472
REMARK  192  A    between atoms: _472  and  _473
REMARK  193  A    between atoms: _478  and  _480
REMARK  194  A    between atoms: _480  and  _481
REMARK  195  A    between atoms: _480  and  _483
REMARK  196  A    between atoms: _483  and  _484
REMARK  197  A    between atoms: _487  and  _489
REMARK  198  A    between atoms: _489  and  _490
REMARK  199  A    between atoms: _489  and  _492
REMARK  200  A    between atoms: _492  and  _493
REMARK  201  A    between atoms: _496  and  _498
REMARK  202  A    between atoms: _498  and  _499
REMARK  203  A    between atoms: _498  and  _501
REMARK  204  A    between atoms: _501  and  _502
REMARK  205  A    between atoms: _502  and  _503
REMARK  206  A    between atoms: _505  and  _507
REMARK  207  A    between atoms: _507  and  _508
REMARK  208  A    between atoms: _507  and  _510
REMARK  209  A    between atoms: _510  and  _511
REMARK  210  A    between atoms: _514  and  _516
REMARK  211  A    between atoms: _516  and  _517
REMARK  212  A    between atoms: _516  and  _519
REMARK  213  A    between atoms: _519  and  _520
REMARK  214  A    between atoms: _521  and  ZN_650
REMARK  215  A    between atoms: _525  and  _527
REMARK  216  A    between atoms: _527  and  _528
REMARK  217  A    between atoms: _527  and  _530
REMARK  218  A    between atoms: _530  and  _531
REMARK  219  A    between atoms: _531  and  _532
REMARK  220  A    between atoms: _532  and  _533
REMARK  221  A    between atoms: _542  and  _544
REMARK  222  A    between atoms: _544  and  _545
REMARK  223  A    between atoms: _548  and  _550
REMARK  224  A    between atoms: _550  and  _551
REMARK  225  A    between atoms: _550  and  _553
REMARK  226  A    between atoms: _553  and  _554
REMARK  227  A    between atoms: _557  and  _559
REMARK  228  A    between atoms: _559  and  _560
REMARK  229  A    between atoms: _559  and  _562
REMARK  230  A    between atoms: _562  and  _563
REMARK  231  A    between atoms: _566  and  _568
REMARK  232  A    between atoms: _568  and  _569
REMARK  233  A    between atoms: _571  and  _573
REMARK  234  A    between atoms: _573  and  _574
REMARK  235  A    between atoms: _573  and  _576
REMARK  236  A    between atoms: _576  and  _577
REMARK  237  A    between atoms: _579  and  _581
REMARK  238  A    between atoms: _581  and  _582
REMARK  239  A    between atoms: _581  and  _584
REMARK  240  A    between atoms: _584  and  _585
REMARK  241  A    between atoms: _585  and  _586
REMARK  242  A    between atoms: _588  and  _590
REMARK  243  A    between atoms: _590  and  _591
REMARK  244  A    between atoms: _590  and  _593
REMARK  245  A    between atoms: _593  and  _594
REMARK  246  A    between atoms: _594  and  _595
REMARK  247  A    between atoms: _598  and  _600
REMARK  248  A    between atoms: _600  and  _601
REMARK  249  A    between atoms: _600  and  _603
REMARK  250  A    between atoms: _603  and  _604
REMARK  251  A    between atoms: _604  and  _605
REMARK  252  A    between atoms: _605  and  _606
REMARK  253  A    between atoms: _615  and  _617
REMARK  254  A    between atoms: _617  and  _618
REMARK  255  A    between atoms: _617  and  _620
REMARK  256  A    between atoms: _620  and  _621
REMARK  257  A    between atoms: _627  and  _629
REMARK  258  A    between atoms: _629  and  _630
REMARK  259  A    between atoms: _629  and  _632
REMARK  260  A    between atoms: _632  and  _633
REMARK  261  A    between atoms: _636  and  _638
REMARK  262  A    between atoms: _638  and  _639
REMARK  263  A    between atoms: _641  and  _643
REMARK  264  A    between atoms: _643  and  _644
REMARK  265  A    between atoms: _643  and  _646
REMARK  266  A    between atoms: _646  and  _647
REMARK                            x       y       z     vdW  Elec       q    Type
REMARK                         _______ _______ _______ _____ _____    ______ ____
ROOT
ATOM      1  O   HOH     1       9.426 -39.583 -10.173  0.00  0.00    +0.000 OA
ENDROOT
TORSDOF 0
REMARK  Name = ../refined-set-2016/4hws/4hws_pocket.pdb
REMARK  266 active torsions:
REMARK  status: ('A' for Active; 'I' for Inactive)
REMARK    1  A    between atoms: _1  and  _3
REMARK    2  A    between atoms: _3  and  _4
REMARK    3  A    between atoms: _6  and  _8
REMARK    4  A    between atoms: _8  and  _9
REMARK    5  A    between atoms: _8  and  _11
REMARK    6  A    between atoms: _14  and  _16
REMARK    7  A    between atoms: _16  and  _17
REMARK    8  A    between atoms: _16  and  _19
REMARK    9  A    between atoms: _19  and  _20
REMARK   10  A    between atoms: _25  and  _27
REMARK   11  A    between atoms: _27  and  _28
REMARK   12  A    between atoms: _27  and  _30
REMARK   13  A    between atoms: _30  and  _31
REMARK   14  A    between atoms: _36  and  _37
REMARK   15  A    between atoms: _40  and  _41
REMARK   16  A    between atoms: _46  and  _48
REMARK   17  A    between atoms: _48  and  _49
REMARK   18  A    between atoms: _48  and  _51
REMARK   19  A    between atoms: _51  and  _52
REMARK   20  A    between atoms: _52  and  _53
REMARK   21  A    between atoms: _55  and  _57
REMARK   22  A    between atoms: _57  and  _58
REMARK   23  A    between atoms: _57  and  _60
REMARK   24  A    between atoms: _60  and  _61
REMARK   25  A    between atoms: _66  and  _68
REMARK   26  A    between atoms: _68  and  _69
REMARK   27  A    between atoms: _68  and  _71
REMARK   28  A    between atoms: _71  and  _72
REMARK   29  A    between atoms: _72  and  ZN_650
REMARK   30  A    between atoms: _74  and  _75
REMARK   31  A    between atoms: _80  and  _82
REMARK   32  A    between atoms: _82  and  _83
REMARK   33  A    between atoms: _82  and  _85
REMARK   34  A    between atoms: _85  and  _86
REMARK   35  A    between atoms: _91  and  _93
REMARK   36  A    between atoms: _93  and  _94
REMARK   37  A    between atoms: _93  and  _96
REMARK   38  A    between atoms: _98  and  _100
REMARK   39  A    between atoms: _100  and  _101
REMARK   40  A    between atoms: _100  and  _103
REMARK   41  A    between atoms: _103  and  _104
REMARK   42  A    between atoms: _109  and  _111
REMARK   43  A    between atoms: _111  and  _112
REMARK   44  A    between atoms: _111  and  _114
REMARK   45  A    between atoms: _114  and  _115
REMARK   46  A    between atoms: _115  and  _116
REMARK   47  A    between atoms: _116  and  _117
REMARK   48  A    between atoms: _126  and  _128
REMARK   49  A    between atoms: _128  and  _129
REMARK   50  A    between atoms: _128  and  _131
REMARK   51  A    between atoms: _131  and  _132
REMARK   52  A    between atoms: _137  and  _139
REMARK   53  A    between atoms: _139  and  _140
REMARK   54  A    between atoms: _139  and  _142
REMARK   55  A    between atoms: _142  and  _143
REMARK   56  A    between atoms: _143  and  _144
REMARK   57  A    between atoms: _147  and  _149
REMARK   58  A    between atoms: _149  and  _150
REMARK   59  A    between atoms: _149  and  _152
REMARK   60  A    between atoms: _152  and  _153
REMARK   61  A    between atoms: _155  and  _157
REMARK   62  A    between atoms: _157  and  _158
REMARK   63  A    between atoms: _157  and  _160
REMARK   64  A    between atoms: _160  and  _161
REMARK   65  A    between atoms: _164  and  _166
REMARK   66  A    between atoms: _166  and  _167
REMARK   67  A    between atoms: _166  and  _169
REMARK   68  A    between atoms: _169  and  _170
REMARK   69  A    between atoms: _175  and  _177
REMARK   70  A    between atoms: _177  and  _178
REMARK   71  A    between atoms: _180  and  _182
REMARK   72  A    between atoms: _182  and  _183
REMARK   73  A    between atoms: _182  and  _185
REMARK   74  A    between atoms: _185  and  _186
REMARK   75  A    between atoms: _189  and  _191
REMARK   76  A    between atoms: _191  and  _192
REMARK   77  A    between atoms: _191  and  _194
REMARK   78  A    between atoms: _194  and  _195
REMARK   79  A    between atoms: _195  and  _196
REMARK   80  A    between atoms: _198  and  _200
REMARK   81  A    between atoms: _200  and  _201
REMARK   82  A    between atoms: _200  and  _203
REMARK   83  A    between atoms: _203  and  _204
REMARK   84  A    between atoms: _204  and  _205
REMARK   85  A    between atoms: _205  and  _206
REMARK   86  A    between atoms: _215  and  _217
REMARK   87  A    between atoms: _217  and  _218
REMARK   88  A    between atoms: _217  and  _220
REMARK   89  A    between atoms: _223  and  _225
REMARK   90  A    between atoms: _225  and  _226
REMARK   91  A    between atoms: _225  and  _228
REMARK   92  A    between atoms: _228  and  _229
REMARK   93  A    between atoms: _229  and  _230
REMARK   94  A    between atoms: _230  and  _231
REMARK   95  A    between atoms: _240  and  _242
REMARK   96  A    between atoms: _242  and  _243
REMARK   97  A    between atoms: _245  and  _247
REMARK   98  A    between atoms: _247  and  _248
REMARK   99  A    between atoms: _247  and  _250
REMARK  100  A    between atoms: _250  and  _251
REMARK  101  A    between atoms: _257  and  _259
REMARK  102  A    between atoms: _259  and  _260
REMARK  103  A    between atoms: _259  and  _262
REMARK  104  A    between atoms: _262  and  _263
REMARK  105  A    between atoms: _266  and  _268
REMARK  106  A    between atoms: _268  and  _269
REMARK  107  A    between atoms: _268  and  _271
REMARK  108  A    between atoms: _271  and  _272
REMARK  109  A    between atoms: _272  and  _273
REMARK  110  A    between atoms: _278  and  _280
REMARK  111  A    between atoms: _280  and  _281
REMARK  112  A    between atoms: _280  and  _283
REMARK  113  A    between atoms: _283  and  _284
REMARK  114  A    between atoms: _287  and  _289
REMARK  115  A    between atoms: _289  and  _290
REMARK  116  A    between atoms: _289  and  _292
REMARK  117  A    between atoms: _292  and  _293
REMARK  118  A    between atoms: _296  and  _298
REMARK  119  A    between atoms: _298  and  _299
REMARK  120  A    between atoms: _302  and  _304
REMARK  121  A    between atoms: _304  and  _305
REMARK  122  A    between atoms: _304  and  _307
REMARK  123  A    between atoms: _307  and  _308
REMARK  124  A    between atoms: _312  and  ZN_650
REMARK  125  A    between atoms: _313  and  _315
REMARK  126  A    between atoms: _315  and  _316
REMARK  127  A    between atoms: _315  and  _318
REMARK  128  A    between atoms: _318  and  _319
REMARK  129  A    between atoms: _322  and  _324
REMARK  130  A    between atoms: _324  and  _325
REMARK  131  A    between atoms: _324  and  _327
REMARK  132  A    between atoms: _327  and  _328
REMARK  133  A    between atoms: _330  and  _332
REMARK  134  A    between atoms: _332  and  _333
REMARK  135  A    between atoms: _332  and  _335
REMARK  136  A    between atoms: _335  and  _336
REMARK  137  A    between atoms: _336  and  _337
REMARK  138  A    between atoms: _340  and  _342
REMARK  139  A    between atoms: _342  and  _343
REMARK  140  A    between atoms: _345  and  _347
REMARK  141  A    between atoms: _347  and  _348
REMARK  142  A    between atoms: _351  and  _353
REMARK  143  A    between atoms: _353  and  _354
REMARK  144  A    between atoms: _353  and  _356
REMARK  145  A    between atoms: _356  and  _357
REMARK  146  A    between atoms: _363  and  _365
REMARK  147  A    between atoms: _365  and  _366
REMARK  148  A    between atoms: _365  and  _368
REMARK  149  A    between atoms: _368  and  _369
REMARK  150  A    between atoms: _374  and  _375
REMARK  151  A    between atoms: _377  and  _379
REMARK  152  A    between atoms: _379  and  _380
REMARK  153  A    between atoms: _379  and  _382
REMARK  154  A    between atoms: _382  and  _383
REMARK  155  A    between atoms: _383  and  _384
REMARK  156  A    between atoms: _384  and  _385
REMARK  157  A    between atoms: _385  and  _386
REMARK  158  A    between atoms: _390  and  _392
REMARK  159  A    between atoms: _392  and  _393
REMARK  160  A    between atoms: _392  and  _395
REMARK  161  A    between atoms: _395  and  _396
REMARK  162  A    between atoms: _399  and  _401
REMARK  163  A    between atoms: _401  and  _402
REMARK  164  A    between atoms: _401  and  _404
REMARK  165  A    between atoms: _404  and  _405
REMARK  166  A    between atoms: _405  and  _406
REMARK  167  A    between atoms: _409  and  _411
REMARK  168  A    between atoms: _411  and  _412
REMARK  169  A    between atoms: _411  and  _414
REMARK  170  A    between atoms: _414  and  _415
REMARK  171  A    between atoms: _425  and  _427
REMARK  172  A    between atoms: _427  and  _428
REMARK  173  A    between atoms: _427  and  _430
REMARK  174  A    between atoms: _430  and  _431
REMARK  175  A    between atoms: _431  and  _432
REMARK  176  A    between atoms: _437  and  _439
REMARK  177  A    between atoms: _439  and  _440
REMARK  178  A    between atoms: _439  and  _442
REMARK  179  A    between atoms: _444  and  _446
REMARK  180  A    between atoms: _446  and  _447
REMARK  181  A    between atoms: _449  and  _451
REMARK  182  A    between atoms: _451  and  _452
REMARK  183  A    between atoms: _451  and  _454
REMARK  184  A    between atoms: _454  and  _455
REMARK  185  A    between atoms: _458  and  _460
REMARK  186  A    between atoms: _460  and  _461
REMARK  187  A    between atoms: _460  and  _463
REMARK  188  A    between atoms: _466  and  _468
REMARK  189  A    between atoms: _468  and  _469
REMARK  190  A    between atoms: _468  and  _471
REMARK  191  A    between atoms: _471  and  _472
REMARK  192  A    between atoms: _472  and  _473
REMARK  193  A    between atoms: _478  and  _480
REMARK  194  A    between atoms: _480  and  _481
REMARK  195  A    between atoms: _480  and  _483
REMARK  196  A    between atoms: _483  and  _484
REMARK  197  A    between atoms: _487  and  _489
REMARK  198  A    between atoms: _489  and  _490
REMARK  199  A    between atoms: _489  and  _492
REMARK  200  A    between atoms: _492  and  _493
REMARK  201  A    between atoms: _496  and  _498
REMARK  202  A    between atoms: _498  and  _499
REMARK  203  A    between atoms: _498  and  _501
REMARK  204  A    between atoms: _501  and  _502
REMARK  205  A    between atoms: _502  and  _503
REMARK  206  A    between atoms: _505  and  _507
REMARK  207  A    between atoms: _507  and  _508
REMARK  208  A    between atoms: _507  and  _510
REMARK  209  A    between atoms: _510  and  _511
REMARK  210  A    between atoms: _514  and  _516
REMARK  211  A    between atoms: _516  and  _517
REMARK  212  A    between atoms: _516  and  _519
REMARK  213  A    between atoms: _519  and  _520
REMARK  214  A    between atoms: _521  and  ZN_650
REMARK  215  A    between atoms: _525  and  _527
REMARK  216  A    between atoms: _527  and  _528
REMARK  217  A    between atoms: _527  and  _530
REMARK  218  A    between atoms: _530  and  _531
REMARK  219  A    between atoms: _531  and  _532
REMARK  220  A    between atoms: _532  and  _533
REMARK  221  A    between atoms: _542  and  _544
REMARK  222  A    between atoms: _544  and  _545
REMARK  223  A    between atoms: _548  and  _550
REMARK  224  A    between atoms: _550  and  _551
REMARK  225  A    between atoms: _550  and  _553
REMARK  226  A    between atoms: _553  and  _554
REMARK  227  A    between atoms: _557  and  _559
REMARK  228  A    between atoms: _559  and  _560
REMARK  229  A    between atoms: _559  and  _562
REMARK  230  A    between atoms: _562  and  _563
REMARK  231  A    between atoms: _566  and  _568
REMARK  232  A    between atoms: _568  and  _569
REMARK  233  A    between atoms: _571  and  _573
REMARK  234  A    between atoms: _573  and  _574
REMARK  235  A    between atoms: _573  and  _576
REMARK  236  A    between atoms: _576  and  _577
REMARK  237  A    between atoms: _579  and  _581
REMARK  238  A    between atoms: _581  and  _582
REMARK  239  A    between atoms: _581  and  _584
REMARK  240  A    between atoms: _584  and  _585
REMARK  241  A    between atoms: _585  and  _586
REMARK  242  A    between atoms: _588  and  _590
REMARK  243  A    between atoms: _590  and  _591
REMARK  244  A    between atoms: _590  and  _593
REMARK  245  A    between atoms: _593  and  _594
REMARK  246  A    between atoms: _594  and  _595
REMARK  247  A    between atoms: _598  and  _600
REMARK  248  A    between atoms: _600  and  _601
REMARK  249  A    between atoms: _600  and  _603
REMARK  250  A    between atoms: _603  and  _604
REMARK  251  A    between atoms: _604  and  _605
REMARK  252  A    between atoms: _605  and  _606
REMARK  253  A    between atoms: _615  and  _617
REMARK  254  A    between atoms: _617  and  _618
REMARK  255  A    between atoms: _617  and  _620
REMARK  256  A    between atoms: _620  and  _621
REMARK  257  A    between atoms: _627  and  _629
REMARK  258  A    between atoms: _629  and  _630
REMARK  259  A    between atoms: _629  and  _632
REMARK  260  A    between atoms: _632  and  _633
REMARK  261  A    between atoms: _636  and  _638
REMARK  262  A    between atoms: _638  and  _639
REMARK  263  A    between atoms: _641  and  _643
REMARK  264  A    between atoms: _643  and  _644
REMARK  265  A    between atoms: _643  and  _646
REMARK  266  A    between atoms: _646  and  _647
REMARK                            x       y       z     vdW  Elec       q    Type
REMARK                         _______ _______ _______ _____ _____    ______ ____
ROOT
ATOM      1  O   HOH     1      16.488 -39.412 -20.837  0.00  0.00    +0.000 OA
ENDROOT
TORSDOF 0
REMARK  Name = ../refined-set-2016/4hws/4hws_pocket.pdb
REMARK  266 active torsions:
REMARK  status: ('A' for Active; 'I' for Inactive)
REMARK    1  A    between atoms: _1  and  _3
REMARK    2  A    between atoms: _3  and  _4
REMARK    3  A    between atoms: _6  and  _8
REMARK    4  A    between atoms: _8  and  _9
REMARK    5  A    between atoms: _8  and  _11
REMARK    6  A    between atoms: _14  and  _16
REMARK    7  A    between atoms: _16  and  _17
REMARK    8  A    between atoms: _16  and  _19
REMARK    9  A    between atoms: _19  and  _20
REMARK   10  A    between atoms: _25  and  _27
REMARK   11  A    between atoms: _27  and  _28
REMARK   12  A    between atoms: _27  and  _30
REMARK   13  A    between atoms: _30  and  _31
REMARK   14  A    between atoms: _36  and  _37
REMARK   15  A    between atoms: _40  and  _41
REMARK   16  A    between atoms: _46  and  _48
REMARK   17  A    between atoms: _48  and  _49
REMARK   18  A    between atoms: _48  and  _51
REMARK   19  A    between atoms: _51  and  _52
REMARK   20  A    between atoms: _52  and  _53
REMARK   21  A    between atoms: _55  and  _57
REMARK   22  A    between atoms: _57  and  _58
REMARK   23  A    between atoms: _57  and  _60
REMARK   24  A    between atoms: _60  and  _61
REMARK   25  A    between atoms: _66  and  _68
REMARK   26  A    between atoms: _68  and  _69
REMARK   27  A    between atoms: _68  and  _71
REMARK   28  A    between atoms: _71  and  _72
REMARK   29  A    between atoms: _72  and  ZN_650
REMARK   30  A    between atoms: _74  and  _75
REMARK   31  A    between atoms: _80  and  _82
REMARK   32  A    between atoms: _82  and  _83
REMARK   33  A    between atoms: _82  and  _85
REMARK   34  A    between atoms: _85  and  _86
REMARK   35  A    between atoms: _91  and  _93
REMARK   36  A    between atoms: _93  and  _94
REMARK   37  A    between atoms: _93  and  _96
REMARK   38  A    between atoms: _98  and  _100
REMARK   39  A    between atoms: _100  and  _101
REMARK   40  A    between atoms: _100  and  _103
REMARK   41  A    between atoms: _103  and  _104
REMARK   42  A    between atoms: _109  and  _111
REMARK   43  A    between atoms: _111  and  _112
REMARK   44  A    between atoms: _111  and  _114
REMARK   45  A    between atoms: _114  and  _115
REMARK   46  A    between atoms: _115  and  _116
REMARK   47  A    between atoms: _116  and  _117
REMARK   48  A    between atoms: _126  and  _128
REMARK   49  A    between atoms: _128  and  _129
REMARK   50  A    between atoms: _128  and  _131
REMARK   51  A    between atoms: _131  and  _132
REMARK   52  A    between atoms: _137  and  _139
REMARK   53  A    between atoms: _139  and  _140
REMARK   54  A    between atoms: _139  and  _142
REMARK   55  A    between atoms: _142  and  _143
REMARK   56  A    between atoms: _143  and  _144
REMARK   57  A    between atoms: _147  and  _149
REMARK   58  A    between atoms: _149  and  _150
REMARK   59  A    between atoms: _149  and  _152
REMARK   60  A    between atoms: _152  and  _153
REMARK   61  A    between atoms: _155  and  _157
REMARK   62  A    between atoms: _157  and  _158
REMARK   63  A    between atoms: _157  and  _160
REMARK   64  A    between atoms: _160  and  _161
REMARK   65  A    between atoms: _164  and  _166
REMARK   66  A    between atoms: _166  and  _167
REMARK   67  A    between atoms: _166  and  _169
REMARK   68  A    between atoms: _169  and  _170
REMARK   69  A    between atoms: _175  and  _177
REMARK   70  A    between atoms: _177  and  _178
REMARK   71  A    between atoms: _180  and  _182
REMARK   72  A    between atoms: _182  and  _183
REMARK   73  A    between atoms: _182  and  _185
REMARK   74  A    between atoms: _185  and  _186
REMARK   75  A    between atoms: _189  and  _191
REMARK   76  A    between atoms: _191  and  _192
REMARK   77  A    between atoms: _191  and  _194
REMARK   78  A    between atoms: _194  and  _195
REMARK   79  A    between atoms: _195  and  _196
REMARK   80  A    between atoms: _198  and  _200
REMARK   81  A    between atoms: _200  and  _201
REMARK   82  A    between atoms: _200  and  _203
REMARK   83  A    between atoms: _203  and  _204
REMARK   84  A    between atoms: _204  and  _205
REMARK   85  A    between atoms: _205  and  _206
REMARK   86  A    between atoms: _215  and  _217
REMARK   87  A    between atoms: _217  and  _218
REMARK   88  A    between atoms: _217  and  _220
REMARK   89  A    between atoms: _223  and  _225
REMARK   90  A    between atoms: _225  and  _226
REMARK   91  A    between atoms: _225  and  _228
REMARK   92  A    between atoms: _228  and  _229
REMARK   93  A    between atoms: _229  and  _230
REMARK   94  A    between atoms: _230  and  _231
REMARK   95  A    between atoms: _240  and  _242
REMARK   96  A    between atoms: _242  and  _243
REMARK   97  A    between atoms: _245  and  _247
REMARK   98  A    between atoms: _247  and  _248
REMARK   99  A    between atoms: _247  and  _250
REMARK  100  A    between atoms: _250  and  _251
REMARK  101  A    between atoms: _257  and  _259
REMARK  102  A    between atoms: _259  and  _260
REMARK  103  A    between atoms: _259  and  _262
REMARK  104  A    between atoms: _262  and  _263
REMARK  105  A    between atoms: _266  and  _268
REMARK  106  A    between atoms: _268  and  _269
REMARK  107  A    between atoms: _268  and  _271
REMARK  108  A    between atoms: _271  and  _272
REMARK  109  A    between atoms: _272  and  _273
REMARK  110  A    between atoms: _278  and  _280
REMARK  111  A    between atoms: _280  and  _281
REMARK  112  A    between atoms: _280  and  _283
REMARK  113  A    between atoms: _283  and  _284
REMARK  114  A    between atoms: _287  and  _289
REMARK  115  A    between atoms: _289  and  _290
REMARK  116  A    between atoms: _289  and  _292
REMARK  117  A    between atoms: _292  and  _293
REMARK  118  A    between atoms: _296  and  _298
REMARK  119  A    between atoms: _298  and  _299
REMARK  120  A    between atoms: _302  and  _304
REMARK  121  A    between atoms: _304  and  _305
REMARK  122  A    between atoms: _304  and  _307
REMARK  123  A    between atoms: _307  and  _308
REMARK  124  A    between atoms: _312  and  ZN_650
REMARK  125  A    between atoms: _313  and  _315
REMARK  126  A    between atoms: _315  and  _316
REMARK  127  A    between atoms: _315  and  _318
REMARK  128  A    between atoms: _318  and  _319
REMARK  129  A    between atoms: _322  and  _324
REMARK  130  A    between atoms: _324  and  _325
REMARK  131  A    between atoms: _324  and  _327
REMARK  132  A    between atoms: _327  and  _328
REMARK  133  A    between atoms: _330  and  _332
REMARK  134  A    between atoms: _332  and  _333
REMARK  135  A    between atoms: _332  and  _335
REMARK  136  A    between atoms: _335  and  _336
REMARK  137  A    between atoms: _336  and  _337
REMARK  138  A    between atoms: _340  and  _342
REMARK  139  A    between atoms: _342  and  _343
REMARK  140  A    between atoms: _345  and  _347
REMARK  141  A    between atoms: _347  and  _348
REMARK  142  A    between atoms: _351  and  _353
REMARK  143  A    between atoms: _353  and  _354
REMARK  144  A    between atoms: _353  and  _356
REMARK  145  A    between atoms: _356  and  _357
REMARK  146  A    between atoms: _363  and  _365
REMARK  147  A    between atoms: _365  and  _366
REMARK  148  A    between atoms: _365  and  _368
REMARK  149  A    between atoms: _368  and  _369
REMARK  150  A    between atoms: _374  and  _375
REMARK  151  A    between atoms: _377  and  _379
REMARK  152  A    between atoms: _379  and  _380
REMARK  153  A    between atoms: _379  and  _382
REMARK  154  A    between atoms: _382  and  _383
REMARK  155  A    between atoms: _383  and  _384
REMARK  156  A    between atoms: _384  and  _385
REMARK  157  A    between atoms: _385  and  _386
REMARK  158  A    between atoms: _390  and  _392
REMARK  159  A    between atoms: _392  and  _393
REMARK  160  A    between atoms: _392  and  _395
REMARK  161  A    between atoms: _395  and  _396
REMARK  162  A    between atoms: _399  and  _401
REMARK  163  A    between atoms: _401  and  _402
REMARK  164  A    between atoms: _401  and  _404
REMARK  165  A    between atoms: _404  and  _405
REMARK  166  A    between atoms: _405  and  _406
REMARK  167  A    between atoms: _409  and  _411
REMARK  168  A    between atoms: _411  and  _412
REMARK  169  A    between atoms: _411  and  _414
REMARK  170  A    between atoms: _414  and  _415
REMARK  171  A    between atoms: _425  and  _427
REMARK  172  A    between atoms: _427  and  _428
REMARK  173  A    between atoms: _427  and  _430
REMARK  174  A    between atoms: _430  and  _431
REMARK  175  A    between atoms: _431  and  _432
REMARK  176  A    between atoms: _437  and  _439
REMARK  177  A    between atoms: _439  and  _440
REMARK  178  A    between atoms: _439  and  _442
REMARK  179  A    between atoms: _444  and  _446
REMARK  180  A    between atoms: _446  and  _447
REMARK  181  A    between atoms: _449  and  _451
REMARK  182  A    between atoms: _451  and  _452
REMARK  183  A    between atoms: _451  and  _454
REMARK  184  A    between atoms: _454  and  _455
REMARK  185  A    between atoms: _458  and  _460
REMARK  186  A    between atoms: _460  and  _461
REMARK  187  A    between atoms: _460  and  _463
REMARK  188  A    between atoms: _466  and  _468
REMARK  189  A    between atoms: _468  and  _469
REMARK  190  A    between atoms: _468  and  _471
REMARK  191  A    between atoms: _471  and  _472
REMARK  192  A    between atoms: _472  and  _473
REMARK  193  A    between atoms: _478  and  _480
REMARK  194  A    between atoms: _480  and  _481
REMARK  195  A    between atoms: _480  and  _483
REMARK  196  A    between atoms: _483  and  _484
REMARK  197  A    between atoms: _487  and  _489
REMARK  198  A    between atoms: _489  and  _490
REMARK  199  A    between atoms: _489  and  _492
REMARK  200  A    between atoms: _492  and  _493
REMARK  201  A    between atoms: _496  and  _498
REMARK  202  A    between atoms: _498  and  _499
REMARK  203  A    between atoms: _498  and  _501
REMARK  204  A    between atoms: _501  and  _502
REMARK  205  A    between atoms: _502  and  _503
REMARK  206  A    between atoms: _505  and  _507
REMARK  207  A    between atoms: _507  and  _508
REMARK  208  A    between atoms: _507  and  _510
REMARK  209  A    between atoms: _510  and  _511
REMARK  210  A    between atoms: _514  and  _516
REMARK  211  A    between atoms: _516  and  _517
REMARK  212  A    between atoms: _516  and  _519
REMARK  213  A    between atoms: _519  and  _520
REMARK  214  A    between atoms: _521  and  ZN_650
REMARK  215  A    between atoms: _525  and  _527
REMARK  216  A    between atoms: _527  and  _528
REMARK  217  A    between atoms: _527  and  _530
REMARK  218  A    between atoms: _530  and  _531
REMARK  219  A    between atoms: _531  and  _532
REMARK  220  A    between atoms: _532  and  _533
REMARK  221  A    between atoms: _542  and  _544
REMARK  222  A    between atoms: _544  and  _545
REMARK  223  A    between atoms: _548  and  _550
REMARK  224  A    between atoms: _550  and  _551
REMARK  225  A    between atoms: _550  and  _553
REMARK  226  A    between atoms: _553  and  _554
REMARK  227  A    between atoms: _557  and  _559
REMARK  228  A    between atoms: _559  and  _560
REMARK  229  A    between atoms: _559  and  _562
REMARK  230  A    between atoms: _562  and  _563
REMARK  231  A    between atoms: _566  and  _568
REMARK  232  A    between atoms: _568  and  _569
REMARK  233  A    between atoms: _571  and  _573
REMARK  234  A    between atoms: _573  and  _574
REMARK  235  A    between atoms: _573  and  _576
REMARK  236  A    between atoms: _576  and  _577
REMARK  237  A    between atoms: _579  and  _581
REMARK  238  A    between atoms: _581  and  _582
REMARK  239  A    between atoms: _581  and  _584
REMARK  240  A    between atoms: _584  and  _585
REMARK  241  A    between atoms: _585  and  _586
REMARK  242  A    between atoms: _588  and  _590
REMARK  243  A    between atoms: _590  and  _591
REMARK  244  A    between atoms: _590  and  _593
REMARK  245  A    between atoms: _593  and  _594
REMARK  246  A    between atoms: _594  and  _595
REMARK  247  A    between atoms: _598  and  _600
REMARK  248  A    between atoms: _600  and  _601
REMARK  249  A    between atoms: _600  and  _603
REMARK  250  A    between atoms: _603  and  _604
REMARK  251  A    between atoms: _604  and  _605
REMARK  252  A    between atoms: _605  and  _606
REMARK  253  A    between atoms: _615  and  _617
REMARK  254  A    between atoms: _617  and  _618
REMARK  255  A    between atoms: _617  and  _620
REMARK  256  A    between atoms: _620  and  _621
REMARK  257  A    between atoms: _627  and  _629
REMARK  258  A    between atoms: _629  and  _630
REMARK  259  A    between atoms: _629  and  _632
REMARK  260  A    between atoms: _632  and  _633
REMARK  261  A    between atoms: _636  and  _638
REMARK  262  A    between atoms: _638  and  _639
REMARK  263  A    between atoms: _641  and  _643
REMARK  264  A    between atoms: _643  and  _644
REMARK  265  A    between atoms: _643  and  _646
REMARK  266  A    between atoms: _646  and  _647
REMARK                            x       y       z     vdW  Elec       q    Type
REMARK                         _______ _______ _______ _____ _____    ______ ____
ROOT
ATOM      1  O   HOH     1      27.702 -30.727 -18.569  0.00  0.00    +0.000 OA
ENDROOT
TORSDOF 0
REMARK  Name = ../refined-set-2016/4hws/4hws_pocket.pdb
REMARK  266 active torsions:
REMARK  status: ('A' for Active; 'I' for Inactive)
REMARK    1  A    between atoms: _1  and  _3
REMARK    2  A    between atoms: _3  and  _4
REMARK    3  A    between atoms: _6  and  _8
REMARK    4  A    between atoms: _8  and  _9
REMARK    5  A    between atoms: _8  and  _11
REMARK    6  A    between atoms: _14  and  _16
REMARK    7  A    between atoms: _16  and  _17
REMARK    8  A    between atoms: _16  and  _19
REMARK    9  A    between atoms: _19  and  _20
REMARK   10  A    between atoms: _25  and  _27
REMARK   11  A    between atoms: _27  and  _28
REMARK   12  A    between atoms: _27  and  _30
REMARK   13  A    between atoms: _30  and  _31
REMARK   14  A    between atoms: _36  and  _37
REMARK   15  A    between atoms: _40  and  _41
REMARK   16  A    between atoms: _46  and  _48
REMARK   17  A    between atoms: _48  and  _49
REMARK   18  A    between atoms: _48  and  _51
REMARK   19  A    between atoms: _51  and  _52
REMARK   20  A    between atoms: _52  and  _53
REMARK   21  A    between atoms: _55  and  _57
REMARK   22  A    between atoms: _57  and  _58
REMARK   23  A    between atoms: _57  and  _60
REMARK   24  A    between atoms: _60  and  _61
REMARK   25  A    between atoms: _66  and  _68
REMARK   26  A    between atoms: _68  and  _69
REMARK   27  A    between atoms: _68  and  _71
REMARK   28  A    between atoms: _71  and  _72
REMARK   29  A    between atoms: _72  and  ZN_650
REMARK   30  A    between atoms: _74  and  _75
REMARK   31  A    between atoms: _80  and  _82
REMARK   32  A    between atoms: _82  and  _83
REMARK   33  A    between atoms: _82  and  _85
REMARK   34  A    between atoms: _85  and  _86
REMARK   35  A    between atoms: _91  and  _93
REMARK   36  A    between atoms: _93  and  _94
REMARK   37  A    between atoms: _93  and  _96
REMARK   38  A    between atoms: _98  and  _100
REMARK   39  A    between atoms: _100  and  _101
REMARK   40  A    between atoms: _100  and  _103
REMARK   41  A    between atoms: _103  and  _104
REMARK   42  A    between atoms: _109  and  _111
REMARK   43  A    between atoms: _111  and  _112
REMARK   44  A    between atoms: _111  and  _114
REMARK   45  A    between atoms: _114  and  _115
REMARK   46  A    between atoms: _115  and  _116
REMARK   47  A    between atoms: _116  and  _117
REMARK   48  A    between atoms: _126  and  _128
REMARK   49  A    between atoms: _128  and  _129
REMARK   50  A    between atoms: _128  and  _131
REMARK   51  A    between atoms: _131  and  _132
REMARK   52  A    between atoms: _137  and  _139
REMARK   53  A    between atoms: _139  and  _140
REMARK   54  A    between atoms: _139  and  _142
REMARK   55  A    between atoms: _142  and  _143
REMARK   56  A    between atoms: _143  and  _144
REMARK   57  A    between atoms: _147  and  _149
REMARK   58  A    between atoms: _149  and  _150
REMARK   59  A    between atoms: _149  and  _152
REMARK   60  A    between atoms: _152  and  _153
REMARK   61  A    between atoms: _155  and  _157
REMARK   62  A    between atoms: _157  and  _158
REMARK   63  A    between atoms: _157  and  _160
REMARK   64  A    between atoms: _160  and  _161
REMARK   65  A    between atoms: _164  and  _166
REMARK   66  A    between atoms: _166  and  _167
REMARK   67  A    between atoms: _166  and  _169
REMARK   68  A    between atoms: _169  and  _170
REMARK   69  A    between atoms: _175  and  _177
REMARK   70  A    between atoms: _177  and  _178
REMARK   71  A    between atoms: _180  and  _182
REMARK   72  A    between atoms: _182  and  _183
REMARK   73  A    between atoms: _182  and  _185
REMARK   74  A    between atoms: _185  and  _186
REMARK   75  A    between atoms: _189  and  _191
REMARK   76  A    between atoms: _191  and  _192
REMARK   77  A    between atoms: _191  and  _194
REMARK   78  A    between atoms: _194  and  _195
REMARK   79  A    between atoms: _195  and  _196
REMARK   80  A    between atoms: _198  and  _200
REMARK   81  A    between atoms: _200  and  _201
REMARK   82  A    between atoms: _200  and  _203
REMARK   83  A    between atoms: _203  and  _204
REMARK   84  A    between atoms: _204  and  _205
REMARK   85  A    between atoms: _205  and  _206
REMARK   86  A    between atoms: _215  and  _217
REMARK   87  A    between atoms: _217  and  _218
REMARK   88  A    between atoms: _217  and  _220
REMARK   89  A    between atoms: _223  and  _225
REMARK   90  A    between atoms: _225  and  _226
REMARK   91  A    between atoms: _225  and  _228
REMARK   92  A    between atoms: _228  and  _229
REMARK   93  A    between atoms: _229  and  _230
REMARK   94  A    between atoms: _230  and  _231
REMARK   95  A    between atoms: _240  and  _242
REMARK   96  A    between atoms: _242  and  _243
REMARK   97  A    between atoms: _245  and  _247
REMARK   98  A    between atoms: _247  and  _248
REMARK   99  A    between atoms: _247  and  _250
REMARK  100  A    between atoms: _250  and  _251
REMARK  101  A    between atoms: _257  and  _259
REMARK  102  A    between atoms: _259  and  _260
REMARK  103  A    between atoms: _259  and  _262
REMARK  104  A    between atoms: _262  and  _263
REMARK  105  A    between atoms: _266  and  _268
REMARK  106  A    between atoms: _268  and  _269
REMARK  107  A    between atoms: _268  and  _271
REMARK  108  A    between atoms: _271  and  _272
REMARK  109  A    between atoms: _272  and  _273
REMARK  110  A    between atoms: _278  and  _280
REMARK  111  A    between atoms: _280  and  _281
REMARK  112  A    between atoms: _280  and  _283
REMARK  113  A    between atoms: _283  and  _284
REMARK  114  A    between atoms: _287  and  _289
REMARK  115  A    between atoms: _289  and  _290
REMARK  116  A    between atoms: _289  and  _292
REMARK  117  A    between atoms: _292  and  _293
REMARK  118  A    between atoms: _296  and  _298
REMARK  119  A    between atoms: _298  and  _299
REMARK  120  A    between atoms: _302  and  _304
REMARK  121  A    between atoms: _304  and  _305
REMARK  122  A    between atoms: _304  and  _307
REMARK  123  A    between atoms: _307  and  _308
REMARK  124  A    between atoms: _312  and  ZN_650
REMARK  125  A    between atoms: _313  and  _315
REMARK  126  A    between atoms: _315  and  _316
REMARK  127  A    between atoms: _315  and  _318
REMARK  128  A    between atoms: _318  and  _319
REMARK  129  A    between atoms: _322  and  _324
REMARK  130  A    between atoms: _324  and  _325
REMARK  131  A    between atoms: _324  and  _327
REMARK  132  A    between atoms: _327  and  _328
REMARK  133  A    between atoms: _330  and  _332
REMARK  134  A    between atoms: _332  and  _333
REMARK  135  A    between atoms: _332  and  _335
REMARK  136  A    between atoms: _335  and  _336
REMARK  137  A    between atoms: _336  and  _337
REMARK  138  A    between atoms: _340  and  _342
REMARK  139  A    between atoms: _342  and  _343
REMARK  140  A    between atoms: _345  and  _347
REMARK  141  A    between atoms: _347  and  _348
REMARK  142  A    between atoms: _351  and  _353
REMARK  143  A    between atoms: _353  and  _354
REMARK  144  A    between atoms: _353  and  _356
REMARK  145  A    between atoms: _356  and  _357
REMARK  146  A    between atoms: _363  and  _365
REMARK  147  A    between atoms: _365  and  _366
REMARK  148  A    between atoms: _365  and  _368
REMARK  149  A    between atoms: _368  and  _369
REMARK  150  A    between atoms: _374  and  _375
REMARK  151  A    between atoms: _377  and  _379
REMARK  152  A    between atoms: _379  and  _380
REMARK  153  A    between atoms: _379  and  _382
REMARK  154  A    between atoms: _382  and  _383
REMARK  155  A    between atoms: _383  and  _384
REMARK  156  A    between atoms: _384  and  _385
REMARK  157  A    between atoms: _385  and  _386
REMARK  158  A    between atoms: _390  and  _392
REMARK  159  A    between atoms: _392  and  _393
REMARK  160  A    between atoms: _392  and  _395
REMARK  161  A    between atoms: _395  and  _396
REMARK  162  A    between atoms: _399  and  _401
REMARK  163  A    between atoms: _401  and  _402
REMARK  164  A    between atoms: _401  and  _404
REMARK  165  A    between atoms: _404  and  _405
REMARK  166  A    between atoms: _405  and  _406
REMARK  167  A    between atoms: _409  and  _411
REMARK  168  A    between atoms: _411  and  _412
REMARK  169  A    between atoms: _411  and  _414
REMARK  170  A    between atoms: _414  and  _415
REMARK  171  A    between atoms: _425  and  _427
REMARK  172  A    between atoms: _427  and  _428
REMARK  173  A    between atoms: _427  and  _430
REMARK  174  A    between atoms: _430  and  _431
REMARK  175  A    between atoms: _431  and  _432
REMARK  176  A    between atoms: _437  and  _439
REMARK  177  A    between atoms: _439  and  _440
REMARK  178  A    between atoms: _439  and  _442
REMARK  179  A    between atoms: _444  and  _446
REMARK  180  A    between atoms: _446  and  _447
REMARK  181  A    between atoms: _449  and  _451
REMARK  182  A    between atoms: _451  and  _452
REMARK  183  A    between atoms: _451  and  _454
REMARK  184  A    between atoms: _454  and  _455
REMARK  185  A    between atoms: _458  and  _460
REMARK  186  A    between atoms: _460  and  _461
REMARK  187  A    between atoms: _460  and  _463
REMARK  188  A    between atoms: _466  and  _468
REMARK  189  A    between atoms: _468  and  _469
REMARK  190  A    between atoms: _468  and  _471
REMARK  191  A    between atoms: _471  and  _472
REMARK  192  A    between atoms: _472  and  _473
REMARK  193  A    between atoms: _478  and  _480
REMARK  194  A    between atoms: _480  and  _481
REMARK  195  A    between atoms: _480  and  _483
REMARK  196  A    between atoms: _483  and  _484
REMARK  197  A    between atoms: _487  and  _489
REMARK  198  A    between atoms: _489  and  _490
REMARK  199  A    between atoms: _489  and  _492
REMARK  200  A    between atoms: _492  and  _493
REMARK  201  A    between atoms: _496  and  _498
REMARK  202  A    between atoms: _498  and  _499
REMARK  203  A    between atoms: _498  and  _501
REMARK  204  A    between atoms: _501  and  _502
REMARK  205  A    between atoms: _502  and  _503
REMARK  206  A    between atoms: _505  and  _507
REMARK  207  A    between atoms: _507  and  _508
REMARK  208  A    between atoms: _507  and  _510
REMARK  209  A    between atoms: _510  and  _511
REMARK  210  A    between atoms: _514  and  _516
REMARK  211  A    between atoms: _516  and  _517
REMARK  212  A    between atoms: _516  and  _519
REMARK  213  A    between atoms: _519  and  _520
REMARK  214  A    between atoms: _521  and  ZN_650
REMARK  215  A    between atoms: _525  and  _527
REMARK  216  A    between atoms: _527  and  _528
REMARK  217  A    between atoms: _527  and  _530
REMARK  218  A    between atoms: _530  and  _531
REMARK  219  A    between atoms: _531  and  _532
REMARK  220  A    between atoms: _532  and  _533
REMARK  221  A    between atoms: _542  and  _544
REMARK  222  A    between atoms: _544  and  _545
REMARK  223  A    between atoms: _548  and  _550
REMARK  224  A    between atoms: _550  and  _551
REMARK  225  A    between atoms: _550  and  _553
REMARK  226  A    between atoms: _553  and  _554
REMARK  227  A    between atoms: _557  and  _559
REMARK  228  A    between atoms: _559  and  _560
REMARK  229  A    between atoms: _559  and  _562
REMARK  230  A    between atoms: _562  and  _563
REMARK  231  A    between atoms: _566  and  _568
REMARK  232  A    between atoms: _568  and  _569
REMARK  233  A    between atoms: _571  and  _573
REMARK  234  A    between atoms: _573  and  _574
REMARK  235  A    between atoms: _573  and  _576
REMARK  236  A    between atoms: _576  and  _577
REMARK  237  A    between atoms: _579  and  _581
REMARK  238  A    between atoms: _581  and  _582
REMARK  239  A    between atoms: _581  and  _584
REMARK  240  A    between atoms: _584  and  _585
REMARK  241  A    between atoms: _585  and  _586
REMARK  242  A    between atoms: _588  and  _590
REMARK  243  A    between atoms: _590  and  _591
REMARK  244  A    between atoms: _590  and  _593
REMARK  245  A    between atoms: _593  and  _594
REMARK  246  A    between atoms: _594  and  _595
REMARK  247  A    between atoms: _598  and  _600
REMARK  248  A    between atoms: _600  and  _601
REMARK  249  A    between atoms: _600  and  _603
REMARK  250  A    between atoms: _603  and  _604
REMARK  251  A    between atoms: _604  and  _605
REMARK  252  A    between atoms: _605  and  _606
REMARK  253  A    between atoms: _615  and  _617
REMARK  254  A    between atoms: _617  and  _618
REMARK  255  A    between atoms: _617  and  _620
REMARK  256  A    between atoms: _620  and  _621
REMARK  257  A    between atoms: _627  and  _629
REMARK  258  A    between atoms: _629  and  _630
REMARK  259  A    between atoms: _629  and  _632
REMARK  260  A    between atoms: _632  and  _633
REMARK  261  A    between atoms: _636  and  _638
REMARK  262  A    between atoms: _638  and  _639
REMARK  263  A    between atoms: _641  and  _643
REMARK  264  A    between atoms: _643  and  _644
REMARK  265  A    between atoms: _643  and  _646
REMARK  266  A    between atoms: _646  and  _647
REMARK                            x       y       z     vdW  Elec       q    Type
REMARK                         _______ _______ _______ _____ _____    ______ ____
ROOT
ATOM      1  O   HOH     1      17.485 -41.941 -16.653  0.00  0.00    +0.000 OA
ENDROOT
TORSDOF 0
REMARK  Name = ../refined-set-2016/4hws/4hws_pocket.pdb
REMARK  266 active torsions:
REMARK  status: ('A' for Active; 'I' for Inactive)
REMARK    1  A    between atoms: _1  and  _3
REMARK    2  A    between atoms: _3  and  _4
REMARK    3  A    between atoms: _6  and  _8
REMARK    4  A    between atoms: _8  and  _9
REMARK    5  A    between atoms: _8  and  _11
REMARK    6  A    between atoms: _14  and  _16
REMARK    7  A    between atoms: _16  and  _17
REMARK    8  A    between atoms: _16  and  _19
REMARK    9  A    between atoms: _19  and  _20
REMARK   10  A    between atoms: _25  and  _27
REMARK   11  A    between atoms: _27  and  _28
REMARK   12  A    between atoms: _27  and  _30
REMARK   13  A    between atoms: _30  and  _31
REMARK   14  A    between atoms: _36  and  _37
REMARK   15  A    between atoms: _40  and  _41
REMARK   16  A    between atoms: _46  and  _48
REMARK   17  A    between atoms: _48  and  _49
REMARK   18  A    between atoms: _48  and  _51
REMARK   19  A    between atoms: _51  and  _52
REMARK   20  A    between atoms: _52  and  _53
REMARK   21  A    between atoms: _55  and  _57
REMARK   22  A    between atoms: _57  and  _58
REMARK   23  A    between atoms: _57  and  _60
REMARK   24  A    between atoms: _60  and  _61
REMARK   25  A    between atoms: _66  and  _68
REMARK   26  A    between atoms: _68  and  _69
REMARK   27  A    between atoms: _68  and  _71
REMARK   28  A    between atoms: _71  and  _72
REMARK   29  A    between atoms: _72  and  ZN_650
REMARK   30  A    between atoms: _74  and  _75
REMARK   31  A    between atoms: _80  and  _82
REMARK   32  A    between atoms: _82  and  _83
REMARK   33  A    between atoms: _82  and  _85
REMARK   34  A    between atoms: _85  and  _86
REMARK   35  A    between atoms: _91  and  _93
REMARK   36  A    between atoms: _93  and  _94
REMARK   37  A    between atoms: _93  and  _96
REMARK   38  A    between atoms: _98  and  _100
REMARK   39  A    between atoms: _100  and  _101
REMARK   40  A    between atoms: _100  and  _103
REMARK   41  A    between atoms: _103  and  _104
REMARK   42  A    between atoms: _109  and  _111
REMARK   43  A    between atoms: _111  and  _112
REMARK   44  A    between atoms: _111  and  _114
REMARK   45  A    between atoms: _114  and  _115
REMARK   46  A    between atoms: _115  and  _116
REMARK   47  A    between atoms: _116  and  _117
REMARK   48  A    between atoms: _126  and  _128
REMARK   49  A    between atoms: _128  and  _129
REMARK   50  A    between atoms: _128  and  _131
REMARK   51  A    between atoms: _131  and  _132
REMARK   52  A    between atoms: _137  and  _139
REMARK   53  A    between atoms: _139  and  _140
REMARK   54  A    between atoms: _139  and  _142
REMARK   55  A    between atoms: _142  and  _143
REMARK   56  A    between atoms: _143  and  _144
REMARK   57  A    between atoms: _147  and  _149
REMARK   58  A    between atoms: _149  and  _150
REMARK   59  A    between atoms: _149  and  _152
REMARK   60  A    between atoms: _152  and  _153
REMARK   61  A    between atoms: _155  and  _157
REMARK   62  A    between atoms: _157  and  _158
REMARK   63  A    between atoms: _157  and  _160
REMARK   64  A    between atoms: _160  and  _161
REMARK   65  A    between atoms: _164  and  _166
REMARK   66  A    between atoms: _166  and  _167
REMARK   67  A    between atoms: _166  and  _169
REMARK   68  A    between atoms: _169  and  _170
REMARK   69  A    between atoms: _175  and  _177
REMARK   70  A    between atoms: _177  and  _178
REMARK   71  A    between atoms: _180  and  _182
REMARK   72  A    between atoms: _182  and  _183
REMARK   73  A    between atoms: _182  and  _185
REMARK   74  A    between atoms: _185  and  _186
REMARK   75  A    between atoms: _189  and  _191
REMARK   76  A    between atoms: _191  and  _192
REMARK   77  A    between atoms: _191  and  _194
REMARK   78  A    between atoms: _194  and  _195
REMARK   79  A    between atoms: _195  and  _196
REMARK   80  A    between atoms: _198  and  _200
REMARK   81  A    between atoms: _200  and  _201
REMARK   82  A    between atoms: _200  and  _203
REMARK   83  A    between atoms: _203  and  _204
REMARK   84  A    between atoms: _204  and  _205
REMARK   85  A    between atoms: _205  and  _206
REMARK   86  A    between atoms: _215  and  _217
REMARK   87  A    between atoms: _217  and  _218
REMARK   88  A    between atoms: _217  and  _220
REMARK   89  A    between atoms: _223  and  _225
REMARK   90  A    between atoms: _225  and  _226
REMARK   91  A    between atoms: _225  and  _228
REMARK   92  A    between atoms: _228  and  _229
REMARK   93  A    between atoms: _229  and  _230
REMARK   94  A    between atoms: _230  and  _231
REMARK   95  A    between atoms: _240  and  _242
REMARK   96  A    between atoms: _242  and  _243
REMARK   97  A    between atoms: _245  and  _247
REMARK   98  A    between atoms: _247  and  _248
REMARK   99  A    between atoms: _247  and  _250
REMARK  100  A    between atoms: _250  and  _251
REMARK  101  A    between atoms: _257  and  _259
REMARK  102  A    between atoms: _259  and  _260
REMARK  103  A    between atoms: _259  and  _262
REMARK  104  A    between atoms: _262  and  _263
REMARK  105  A    between atoms: _266  and  _268
REMARK  106  A    between atoms: _268  and  _269
REMARK  107  A    between atoms: _268  and  _271
REMARK  108  A    between atoms: _271  and  _272
REMARK  109  A    between atoms: _272  and  _273
REMARK  110  A    between atoms: _278  and  _280
REMARK  111  A    between atoms: _280  and  _281
REMARK  112  A    between atoms: _280  and  _283
REMARK  113  A    between atoms: _283  and  _284
REMARK  114  A    between atoms: _287  and  _289
REMARK  115  A    between atoms: _289  and  _290
REMARK  116  A    between atoms: _289  and  _292
REMARK  117  A    between atoms: _292  and  _293
REMARK  118  A    between atoms: _296  and  _298
REMARK  119  A    between atoms: _298  and  _299
REMARK  120  A    between atoms: _302  and  _304
REMARK  121  A    between atoms: _304  and  _305
REMARK  122  A    between atoms: _304  and  _307
REMARK  123  A    between atoms: _307  and  _308
REMARK  124  A    between atoms: _312  and  ZN_650
REMARK  125  A    between atoms: _313  and  _315
REMARK  126  A    between atoms: _315  and  _316
REMARK  127  A    between atoms: _315  and  _318
REMARK  128  A    between atoms: _318  and  _319
REMARK  129  A    between atoms: _322  and  _324
REMARK  130  A    between atoms: _324  and  _325
REMARK  131  A    between atoms: _324  and  _327
REMARK  132  A    between atoms: _327  and  _328
REMARK  133  A    between atoms: _330  and  _332
REMARK  134  A    between atoms: _332  and  _333
REMARK  135  A    between atoms: _332  and  _335
REMARK  136  A    between atoms: _335  and  _336
REMARK  137  A    between atoms: _336  and  _337
REMARK  138  A    between atoms: _340  and  _342
REMARK  139  A    between atoms: _342  and  _343
REMARK  140  A    between atoms: _345  and  _347
REMARK  141  A    between atoms: _347  and  _348
REMARK  142  A    between atoms: _351  and  _353
REMARK  143  A    between atoms: _353  and  _354
REMARK  144  A    between atoms: _353  and  _356
REMARK  145  A    between atoms: _356  and  _357
REMARK  146  A    between atoms: _363  and  _365
REMARK  147  A    between atoms: _365  and  _366
REMARK  148  A    between atoms: _365  and  _368
REMARK  149  A    between atoms: _368  and  _369
REMARK  150  A    between atoms: _374  and  _375
REMARK  151  A    between atoms: _377  and  _379
REMARK  152  A    between atoms: _379  and  _380
REMARK  153  A    between atoms: _379  and  _382
REMARK  154  A    between atoms: _382  and  _383
REMARK  155  A    between atoms: _383  and  _384
REMARK  156  A    between atoms: _384  and  _385
REMARK  157  A    between atoms: _385  and  _386
REMARK  158  A    between atoms: _390  and  _392
REMARK  159  A    between atoms: _392  and  _393
REMARK  160  A    between atoms: _392  and  _395
REMARK  161  A    between atoms: _395  and  _396
REMARK  162  A    between atoms: _399  and  _401
REMARK  163  A    between atoms: _401  and  _402
REMARK  164  A    between atoms: _401  and  _404
REMARK  165  A    between atoms: _404  and  _405
REMARK  166  A    between atoms: _405  and  _406
REMARK  167  A    between atoms: _409  and  _411
REMARK  168  A    between atoms: _411  and  _412
REMARK  169  A    between atoms: _411  and  _414
REMARK  170  A    between atoms: _414  and  _415
REMARK  171  A    between atoms: _425  and  _427
REMARK  172  A    between atoms: _427  and  _428
REMARK  173  A    between atoms: _427  and  _430
REMARK  174  A    between atoms: _430  and  _431
REMARK  175  A    between atoms: _431  and  _432
REMARK  176  A    between atoms: _437  and  _439
REMARK  177  A    between atoms: _439  and  _440
REMARK  178  A    between atoms: _439  and  _442
REMARK  179  A    between atoms: _444  and  _446
REMARK  180  A    between atoms: _446  and  _447
REMARK  181  A    between atoms: _449  and  _451
REMARK  182  A    between atoms: _451  and  _452
REMARK  183  A    between atoms: _451  and  _454
REMARK  184  A    between atoms: _454  and  _455
REMARK  185  A    between atoms: _458  and  _460
REMARK  186  A    between atoms: _460  and  _461
REMARK  187  A    between atoms: _460  and  _463
REMARK  188  A    between atoms: _466  and  _468
REMARK  189  A    between atoms: _468  and  _469
REMARK  190  A    between atoms: _468  and  _471
REMARK  191  A    between atoms: _471  and  _472
REMARK  192  A    between atoms: _472  and  _473
REMARK  193  A    between atoms: _478  and  _480
REMARK  194  A    between atoms: _480  and  _481
REMARK  195  A    between atoms: _480  and  _483
REMARK  196  A    between atoms: _483  and  _484
REMARK  197  A    between atoms: _487  and  _489
REMARK  198  A    between atoms: _489  and  _490
REMARK  199  A    between atoms: _489  and  _492
REMARK  200  A    between atoms: _492  and  _493
REMARK  201  A    between atoms: _496  and  _498
REMARK  202  A    between atoms: _498  and  _499
REMARK  203  A    between atoms: _498  and  _501
REMARK  204  A    between atoms: _501  and  _502
REMARK  205  A    between atoms: _502  and  _503
REMARK  206  A    between atoms: _505  and  _507
REMARK  207  A    between atoms: _507  and  _508
REMARK  208  A    between atoms: _507  and  _510
REMARK  209  A    between atoms: _510  and  _511
REMARK  210  A    between atoms: _514  and  _516
REMARK  211  A    between atoms: _516  and  _517
REMARK  212  A    between atoms: _516  and  _519
REMARK  213  A    between atoms: _519  and  _520
REMARK  214  A    between atoms: _521  and  ZN_650
REMARK  215  A    between atoms: _525  and  _527
REMARK  216  A    between atoms: _527  and  _528
REMARK  217  A    between atoms: _527  and  _530
REMARK  218  A    between atoms: _530  and  _531
REMARK  219  A    between atoms: _531  and  _532
REMARK  220  A    between atoms: _532  and  _533
REMARK  221  A    between atoms: _542  and  _544
REMARK  222  A    between atoms: _544  and  _545
REMARK  223  A    between atoms: _548  and  _550
REMARK  224  A    between atoms: _550  and  _551
REMARK  225  A    between atoms: _550  and  _553
REMARK  226  A    between atoms: _553  and  _554
REMARK  227  A    between atoms: _557  and  _559
REMARK  228  A    between atoms: _559  and  _560
REMARK  229  A    between atoms: _559  and  _562
REMARK  230  A    between atoms: _562  and  _563
REMARK  231  A    between atoms: _566  and  _568
REMARK  232  A    between atoms: _568  and  _569
REMARK  233  A    between atoms: _571  and  _573
REMARK  234  A    between atoms: _573  and  _574
REMARK  235  A    between atoms: _573  and  _576
REMARK  236  A    between atoms: _576  and  _577
REMARK  237  A    between atoms: _579  and  _581
REMARK  238  A    between atoms: _581  and  _582
REMARK  239  A    between atoms: _581  and  _584
REMARK  240  A    between atoms: _584  and  _585
REMARK  241  A    between atoms: _585  and  _586
REMARK  242  A    between atoms: _588  and  _590
REMARK  243  A    between atoms: _590  and  _591
REMARK  244  A    between atoms: _590  and  _593
REMARK  245  A    between atoms: _593  and  _594
REMARK  246  A    between atoms: _594  and  _595
REMARK  247  A    between atoms: _598  and  _600
REMARK  248  A    between atoms: _600  and  _601
REMARK  249  A    between atoms: _600  and  _603
REMARK  250  A    between atoms: _603  and  _604
REMARK  251  A    between atoms: _604  and  _605
REMARK  252  A    between atoms: _605  and  _606
REMARK  253  A    between atoms: _615  and  _617
REMARK  254  A    between atoms: _617  and  _618
REMARK  255  A    between atoms: _617  and  _620
REMARK  256  A    between atoms: _620  and  _621
REMARK  257  A    between atoms: _627  and  _629
REMARK  258  A    between atoms: _629  and  _630
REMARK  259  A    between atoms: _629  and  _632
REMARK  260  A    between atoms: _632  and  _633
REMARK  261  A    between atoms: _636  and  _638
REMARK  262  A    between atoms: _638  and  _639
REMARK  263  A    between atoms: _641  and  _643
REMARK  264  A    between atoms: _643  and  _644
REMARK  265  A    between atoms: _643  and  _646
REMARK  266  A    between atoms: _646  and  _647
REMARK                            x       y       z     vdW  Elec       q    Type
REMARK                         _______ _______ _______ _____ _____    ______ ____
ROOT
ATOM      1  O   HOH     1      17.558 -39.155 -12.056  0.00  0.00    +0.000 OA
ENDROOT
TORSDOF 0
REMARK  Name = ../refined-set-2016/4hws/4hws_pocket.pdb
REMARK  266 active torsions:
REMARK  status: ('A' for Active; 'I' for Inactive)
REMARK    1  A    between atoms: _1  and  _3
REMARK    2  A    between atoms: _3  and  _4
REMARK    3  A    between atoms: _6  and  _8
REMARK    4  A    between atoms: _8  and  _9
REMARK    5  A    between atoms: _8  and  _11
REMARK    6  A    between atoms: _14  and  _16
REMARK    7  A    between atoms: _16  and  _17
REMARK    8  A    between atoms: _16  and  _19
REMARK    9  A    between atoms: _19  and  _20
REMARK   10  A    between atoms: _25  and  _27
REMARK   11  A    between atoms: _27  and  _28
REMARK   12  A    between atoms: _27  and  _30
REMARK   13  A    between atoms: _30  and  _31
REMARK   14  A    between atoms: _36  and  _37
REMARK   15  A    between atoms: _40  and  _41
REMARK   16  A    between atoms: _46  and  _48
REMARK   17  A    between atoms: _48  and  _49
REMARK   18  A    between atoms: _48  and  _51
REMARK   19  A    between atoms: _51  and  _52
REMARK   20  A    between atoms: _52  and  _53
REMARK   21  A    between atoms: _55  and  _57
REMARK   22  A    between atoms: _57  and  _58
REMARK   23  A    between atoms: _57  and  _60
REMARK   24  A    between atoms: _60  and  _61
REMARK   25  A    between atoms: _66  and  _68
REMARK   26  A    between atoms: _68  and  _69
REMARK   27  A    between atoms: _68  and  _71
REMARK   28  A    between atoms: _71  and  _72
REMARK   29  A    between atoms: _72  and  ZN_650
REMARK   30  A    between atoms: _74  and  _75
REMARK   31  A    between atoms: _80  and  _82
REMARK   32  A    between atoms: _82  and  _83
REMARK   33  A    between atoms: _82  and  _85
REMARK   34  A    between atoms: _85  and  _86
REMARK   35  A    between atoms: _91  and  _93
REMARK   36  A    between atoms: _93  and  _94
REMARK   37  A    between atoms: _93  and  _96
REMARK   38  A    between atoms: _98  and  _100
REMARK   39  A    between atoms: _100  and  _101
REMARK   40  A    between atoms: _100  and  _103
REMARK   41  A    between atoms: _103  and  _104
REMARK   42  A    between atoms: _109  and  _111
REMARK   43  A    between atoms: _111  and  _112
REMARK   44  A    between atoms: _111  and  _114
REMARK   45  A    between atoms: _114  and  _115
REMARK   46  A    between atoms: _115  and  _116
REMARK   47  A    between atoms: _116  and  _117
REMARK   48  A    between atoms: _126  and  _128
REMARK   49  A    between atoms: _128  and  _129
REMARK   50  A    between atoms: _128  and  _131
REMARK   51  A    between atoms: _131  and  _132
REMARK   52  A    between atoms: _137  and  _139
REMARK   53  A    between atoms: _139  and  _140
REMARK   54  A    between atoms: _139  and  _142
REMARK   55  A    between atoms: _142  and  _143
REMARK   56  A    between atoms: _143  and  _144
REMARK   57  A    between atoms: _147  and  _149
REMARK   58  A    between atoms: _149  and  _150
REMARK   59  A    between atoms: _149  and  _152
REMARK   60  A    between atoms: _152  and  _153
REMARK   61  A    between atoms: _155  and  _157
REMARK   62  A    between atoms: _157  and  _158
REMARK   63  A    between atoms: _157  and  _160
REMARK   64  A    between atoms: _160  and  _161
REMARK   65  A    between atoms: _164  and  _166
REMARK   66  A    between atoms: _166  and  _167
REMARK   67  A    between atoms: _166  and  _169
REMARK   68  A    between atoms: _169  and  _170
REMARK   69  A    between atoms: _175  and  _177
REMARK   70  A    between atoms: _177  and  _178
REMARK   71  A    between atoms: _180  and  _182
REMARK   72  A    between atoms: _182  and  _183
REMARK   73  A    between atoms: _182  and  _185
REMARK   74  A    between atoms: _185  and  _186
REMARK   75  A    between atoms: _189  and  _191
REMARK   76  A    between atoms: _191  and  _192
REMARK   77  A    between atoms: _191  and  _194
REMARK   78  A    between atoms: _194  and  _195
REMARK   79  A    between atoms: _195  and  _196
REMARK   80  A    between atoms: _198  and  _200
REMARK   81  A    between atoms: _200  and  _201
REMARK   82  A    between atoms: _200  and  _203
REMARK   83  A    between atoms: _203  and  _204
REMARK   84  A    between atoms: _204  and  _205
REMARK   85  A    between atoms: _205  and  _206
REMARK   86  A    between atoms: _215  and  _217
REMARK   87  A    between atoms: _217  and  _218
REMARK   88  A    between atoms: _217  and  _220
REMARK   89  A    between atoms: _223  and  _225
REMARK   90  A    between atoms: _225  and  _226
REMARK   91  A    between atoms: _225  and  _228
REMARK   92  A    between atoms: _228  and  _229
REMARK   93  A    between atoms: _229  and  _230
REMARK   94  A    between atoms: _230  and  _231
REMARK   95  A    between atoms: _240  and  _242
REMARK   96  A    between atoms: _242  and  _243
REMARK   97  A    between atoms: _245  and  _247
REMARK   98  A    between atoms: _247  and  _248
REMARK   99  A    between atoms: _247  and  _250
REMARK  100  A    between atoms: _250  and  _251
REMARK  101  A    between atoms: _257  and  _259
REMARK  102  A    between atoms: _259  and  _260
REMARK  103  A    between atoms: _259  and  _262
REMARK  104  A    between atoms: _262  and  _263
REMARK  105  A    between atoms: _266  and  _268
REMARK  106  A    between atoms: _268  and  _269
REMARK  107  A    between atoms: _268  and  _271
REMARK  108  A    between atoms: _271  and  _272
REMARK  109  A    between atoms: _272  and  _273
REMARK  110  A    between atoms: _278  and  _280
REMARK  111  A    between atoms: _280  and  _281
REMARK  112  A    between atoms: _280  and  _283
REMARK  113  A    between atoms: _283  and  _284
REMARK  114  A    between atoms: _287  and  _289
REMARK  115  A    between atoms: _289  and  _290
REMARK  116  A    between atoms: _289  and  _292
REMARK  117  A    between atoms: _292  and  _293
REMARK  118  A    between atoms: _296  and  _298
REMARK  119  A    between atoms: _298  and  _299
REMARK  120  A    between atoms: _302  and  _304
REMARK  121  A    between atoms: _304  and  _305
REMARK  122  A    between atoms: _304  and  _307
REMARK  123  A    between atoms: _307  and  _308
REMARK  124  A    between atoms: _312  and  ZN_650
REMARK  125  A    between atoms: _313  and  _315
REMARK  126  A    between atoms: _315  and  _316
REMARK  127  A    between atoms: _315  and  _318
REMARK  128  A    between atoms: _318  and  _319
REMARK  129  A    between atoms: _322  and  _324
REMARK  130  A    between atoms: _324  and  _325
REMARK  131  A    between atoms: _324  and  _327
REMARK  132  A    between atoms: _327  and  _328
REMARK  133  A    between atoms: _330  and  _332
REMARK  134  A    between atoms: _332  and  _333
REMARK  135  A    between atoms: _332  and  _335
REMARK  136  A    between atoms: _335  and  _336
REMARK  137  A    between atoms: _336  and  _337
REMARK  138  A    between atoms: _340  and  _342
REMARK  139  A    between atoms: _342  and  _343
REMARK  140  A    between atoms: _345  and  _347
REMARK  141  A    between atoms: _347  and  _348
REMARK  142  A    between atoms: _351  and  _353
REMARK  143  A    between atoms: _353  and  _354
REMARK  144  A    between atoms: _353  and  _356
REMARK  145  A    between atoms: _356  and  _357
REMARK  146  A    between atoms: _363  and  _365
REMARK  147  A    between atoms: _365  and  _366
REMARK  148  A    between atoms: _365  and  _368
REMARK  149  A    between atoms: _368  and  _369
REMARK  150  A    between atoms: _374  and  _375
REMARK  151  A    between atoms: _377  and  _379
REMARK  152  A    between atoms: _379  and  _380
REMARK  153  A    between atoms: _379  and  _382
REMARK  154  A    between atoms: _382  and  _383
REMARK  155  A    between atoms: _383  and  _384
REMARK  156  A    between atoms: _384  and  _385
REMARK  157  A    between atoms: _385  and  _386
REMARK  158  A    between atoms: _390  and  _392
REMARK  159  A    between atoms: _392  and  _393
REMARK  160  A    between atoms: _392  and  _395
REMARK  161  A    between atoms: _395  and  _396
REMARK  162  A    between atoms: _399  and  _401
REMARK  163  A    between atoms: _401  and  _402
REMARK  164  A    between atoms: _401  and  _404
REMARK  165  A    between atoms: _404  and  _405
REMARK  166  A    between atoms: _405  and  _406
REMARK  167  A    between atoms: _409  and  _411
REMARK  168  A    between atoms: _411  and  _412
REMARK  169  A    between atoms: _411  and  _414
REMARK  170  A    between atoms: _414  and  _415
REMARK  171  A    between atoms: _425  and  _427
REMARK  172  A    between atoms: _427  and  _428
REMARK  173  A    between atoms: _427  and  _430
REMARK  174  A    between atoms: _430  and  _431
REMARK  175  A    between atoms: _431  and  _432
REMARK  176  A    between atoms: _437  and  _439
REMARK  177  A    between atoms: _439  and  _440
REMARK  178  A    between atoms: _439  and  _442
REMARK  179  A    between atoms: _444  and  _446
REMARK  180  A    between atoms: _446  and  _447
REMARK  181  A    between atoms: _449  and  _451
REMARK  182  A    between atoms: _451  and  _452
REMARK  183  A    between atoms: _451  and  _454
REMARK  184  A    between atoms: _454  and  _455
REMARK  185  A    between atoms: _458  and  _460
REMARK  186  A    between atoms: _460  and  _461
REMARK  187  A    between atoms: _460  and  _463
REMARK  188  A    between atoms: _466  and  _468
REMARK  189  A    between atoms: _468  and  _469
REMARK  190  A    between atoms: _468  and  _471
REMARK  191  A    between atoms: _471  and  _472
REMARK  192  A    between atoms: _472  and  _473
REMARK  193  A    between atoms: _478  and  _480
REMARK  194  A    between atoms: _480  and  _481
REMARK  195  A    between atoms: _480  and  _483
REMARK  196  A    between atoms: _483  and  _484
REMARK  197  A    between atoms: _487  and  _489
REMARK  198  A    between atoms: _489  and  _490
REMARK  199  A    between atoms: _489  and  _492
REMARK  200  A    between atoms: _492  and  _493
REMARK  201  A    between atoms: _496  and  _498
REMARK  202  A    between atoms: _498  and  _499
REMARK  203  A    between atoms: _498  and  _501
REMARK  204  A    between atoms: _501  and  _502
REMARK  205  A    between atoms: _502  and  _503
REMARK  206  A    between atoms: _505  and  _507
REMARK  207  A    between atoms: _507  and  _508
REMARK  208  A    between atoms: _507  and  _510
REMARK  209  A    between atoms: _510  and  _511
REMARK  210  A    between atoms: _514  and  _516
REMARK  211  A    between atoms: _516  and  _517
REMARK  212  A    between atoms: _516  and  _519
REMARK  213  A    between atoms: _519  and  _520
REMARK  214  A    between atoms: _521  and  ZN_650
REMARK  215  A    between atoms: _525  and  _527
REMARK  216  A    between atoms: _527  and  _528
REMARK  217  A    between atoms: _527  and  _530
REMARK  218  A    between atoms: _530  and  _531
REMARK  219  A    between atoms: _531  and  _532
REMARK  220  A    between atoms: _532  and  _533
REMARK  221  A    between atoms: _542  and  _544
REMARK  222  A    between atoms: _544  and  _545
REMARK  223  A    between atoms: _548  and  _550
REMARK  224  A    between atoms: _550  and  _551
REMARK  225  A    between atoms: _550  and  _553
REMARK  226  A    between atoms: _553  and  _554
REMARK  227  A    between atoms: _557  and  _559
REMARK  228  A    between atoms: _559  and  _560
REMARK  229  A    between atoms: _559  and  _562
REMARK  230  A    between atoms: _562  and  _563
REMARK  231  A    between atoms: _566  and  _568
REMARK  232  A    between atoms: _568  and  _569
REMARK  233  A    between atoms: _571  and  _573
REMARK  234  A    between atoms: _573  and  _574
REMARK  235  A    between atoms: _573  and  _576
REMARK  236  A    between atoms: _576  and  _577
REMARK  237  A    between atoms: _579  and  _581
REMARK  238  A    between atoms: _581  and  _582
REMARK  239  A    between atoms: _581  and  _584
REMARK  240  A    between atoms: _584  and  _585
REMARK  241  A    between atoms: _585  and  _586
REMARK  242  A    between atoms: _588  and  _590
REMARK  243  A    between atoms: _590  and  _591
REMARK  244  A    between atoms: _590  and  _593
REMARK  245  A    between atoms: _593  and  _594
REMARK  246  A    between atoms: _594  and  _595
REMARK  247  A    between atoms: _598  and  _600
REMARK  248  A    between atoms: _600  and  _601
REMARK  249  A    between atoms: _600  and  _603
REMARK  250  A    between atoms: _603  and  _604
REMARK  251  A    between atoms: _604  and  _605
REMARK  252  A    between atoms: _605  and  _606
REMARK  253  A    between atoms: _615  and  _617
REMARK  254  A    between atoms: _617  and  _618
REMARK  255  A    between atoms: _617  and  _620
REMARK  256  A    between atoms: _620  and  _621
REMARK  257  A    between atoms: _627  and  _629
REMARK  258  A    between atoms: _629  and  _630
REMARK  259  A    between atoms: _629  and  _632
REMARK  260  A    between atoms: _632  and  _633
REMARK  261  A    between atoms: _636  and  _638
REMARK  262  A    between atoms: _638  and  _639
REMARK  263  A    between atoms: _641  and  _643
REMARK  264  A    between atoms: _643  and  _644
REMARK  265  A    between atoms: _643  and  _646
REMARK  266  A    between atoms: _646  and  _647
REMARK                            x       y       z     vdW  Elec       q    Type
REMARK                         _______ _______ _______ _____ _____    ______ ____
ROOT
ATOM      1  O   HOH     1      28.111 -31.273 -15.697  0.00  0.00    +0.000 OA
ENDROOT
TORSDOF 0
REMARK  Name = ../refined-set-2016/4hws/4hws_pocket.pdb
REMARK  266 active torsions:
REMARK  status: ('A' for Active; 'I' for Inactive)
REMARK    1  A    between atoms: _1  and  _3
REMARK    2  A    between atoms: _3  and  _4
REMARK    3  A    between atoms: _6  and  _8
REMARK    4  A    between atoms: _8  and  _9
REMARK    5  A    between atoms: _8  and  _11
REMARK    6  A    between atoms: _14  and  _16
REMARK    7  A    between atoms: _16  and  _17
REMARK    8  A    between atoms: _16  and  _19
REMARK    9  A    between atoms: _19  and  _20
REMARK   10  A    between atoms: _25  and  _27
REMARK   11  A    between atoms: _27  and  _28
REMARK   12  A    between atoms: _27  and  _30
REMARK   13  A    between atoms: _30  and  _31
REMARK   14  A    between atoms: _36  and  _37
REMARK   15  A    between atoms: _40  and  _41
REMARK   16  A    between atoms: _46  and  _48
REMARK   17  A    between atoms: _48  and  _49
REMARK   18  A    between atoms: _48  and  _51
REMARK   19  A    between atoms: _51  and  _52
REMARK   20  A    between atoms: _52  and  _53
REMARK   21  A    between atoms: _55  and  _57
REMARK   22  A    between atoms: _57  and  _58
REMARK   23  A    between atoms: _57  and  _60
REMARK   24  A    between atoms: _60  and  _61
REMARK   25  A    between atoms: _66  and  _68
REMARK   26  A    between atoms: _68  and  _69
REMARK   27  A    between atoms: _68  and  _71
REMARK   28  A    between atoms: _71  and  _72
REMARK   29  A    between atoms: _72  and  ZN_650
REMARK   30  A    between atoms: _74  and  _75
REMARK   31  A    between atoms: _80  and  _82
REMARK   32  A    between atoms: _82  and  _83
REMARK   33  A    between atoms: _82  and  _85
REMARK   34  A    between atoms: _85  and  _86
REMARK   35  A    between atoms: _91  and  _93
REMARK   36  A    between atoms: _93  and  _94
REMARK   37  A    between atoms: _93  and  _96
REMARK   38  A    between atoms: _98  and  _100
REMARK   39  A    between atoms: _100  and  _101
REMARK   40  A    between atoms: _100  and  _103
REMARK   41  A    between atoms: _103  and  _104
REMARK   42  A    between atoms: _109  and  _111
REMARK   43  A    between atoms: _111  and  _112
REMARK   44  A    between atoms: _111  and  _114
REMARK   45  A    between atoms: _114  and  _115
REMARK   46  A    between atoms: _115  and  _116
REMARK   47  A    between atoms: _116  and  _117
REMARK   48  A    between atoms: _126  and  _128
REMARK   49  A    between atoms: _128  and  _129
REMARK   50  A    between atoms: _128  and  _131
REMARK   51  A    between atoms: _131  and  _132
REMARK   52  A    between atoms: _137  and  _139
REMARK   53  A    between atoms: _139  and  _140
REMARK   54  A    between atoms: _139  and  _142
REMARK   55  A    between atoms: _142  and  _143
REMARK   56  A    between atoms: _143  and  _144
REMARK   57  A    between atoms: _147  and  _149
REMARK   58  A    between atoms: _149  and  _150
REMARK   59  A    between atoms: _149  and  _152
REMARK   60  A    between atoms: _152  and  _153
REMARK   61  A    between atoms: _155  and  _157
REMARK   62  A    between atoms: _157  and  _158
REMARK   63  A    between atoms: _157  and  _160
REMARK   64  A    between atoms: _160  and  _161
REMARK   65  A    between atoms: _164  and  _166
REMARK   66  A    between atoms: _166  and  _167
REMARK   67  A    between atoms: _166  and  _169
REMARK   68  A    between atoms: _169  and  _170
REMARK   69  A    between atoms: _175  and  _177
REMARK   70  A    between atoms: _177  and  _178
REMARK   71  A    between atoms: _180  and  _182
REMARK   72  A    between atoms: _182  and  _183
REMARK   73  A    between atoms: _182  and  _185
REMARK   74  A    between atoms: _185  and  _186
REMARK   75  A    between atoms: _189  and  _191
REMARK   76  A    between atoms: _191  and  _192
REMARK   77  A    between atoms: _191  and  _194
REMARK   78  A    between atoms: _194  and  _195
REMARK   79  A    between atoms: _195  and  _196
REMARK   80  A    between atoms: _198  and  _200
REMARK   81  A    between atoms: _200  and  _201
REMARK   82  A    between atoms: _200  and  _203
REMARK   83  A    between atoms: _203  and  _204
REMARK   84  A    between atoms: _204  and  _205
REMARK   85  A    between atoms: _205  and  _206
REMARK   86  A    between atoms: _215  and  _217
REMARK   87  A    between atoms: _217  and  _218
REMARK   88  A    between atoms: _217  and  _220
REMARK   89  A    between atoms: _223  and  _225
REMARK   90  A    between atoms: _225  and  _226
REMARK   91  A    between atoms: _225  and  _228
REMARK   92  A    between atoms: _228  and  _229
REMARK   93  A    between atoms: _229  and  _230
REMARK   94  A    between atoms: _230  and  _231
REMARK   95  A    between atoms: _240  and  _242
REMARK   96  A    between atoms: _242  and  _243
REMARK   97  A    between atoms: _245  and  _247
REMARK   98  A    between atoms: _247  and  _248
REMARK   99  A    between atoms: _247  and  _250
REMARK  100  A    between atoms: _250  and  _251
REMARK  101  A    between atoms: _257  and  _259
REMARK  102  A    between atoms: _259  and  _260
REMARK  103  A    between atoms: _259  and  _262
REMARK  104  A    between atoms: _262  and  _263
REMARK  105  A    between atoms: _266  and  _268
REMARK  106  A    between atoms: _268  and  _269
REMARK  107  A    between atoms: _268  and  _271
REMARK  108  A    between atoms: _271  and  _272
REMARK  109  A    between atoms: _272  and  _273
REMARK  110  A    between atoms: _278  and  _280
REMARK  111  A    between atoms: _280  and  _281
REMARK  112  A    between atoms: _280  and  _283
REMARK  113  A    between atoms: _283  and  _284
REMARK  114  A    between atoms: _287  and  _289
REMARK  115  A    between atoms: _289  and  _290
REMARK  116  A    between atoms: _289  and  _292
REMARK  117  A    between atoms: _292  and  _293
REMARK  118  A    between atoms: _296  and  _298
REMARK  119  A    between atoms: _298  and  _299
REMARK  120  A    between atoms: _302  and  _304
REMARK  121  A    between atoms: _304  and  _305
REMARK  122  A    between atoms: _304  and  _307
REMARK  123  A    between atoms: _307  and  _308
REMARK  124  A    between atoms: _312  and  ZN_650
REMARK  125  A    between atoms: _313  and  _315
REMARK  126  A    between atoms: _315  and  _316
REMARK  127  A    between atoms: _315  and  _318
REMARK  128  A    between atoms: _318  and  _319
REMARK  129  A    between atoms: _322  and  _324
REMARK  130  A    between atoms: _324  and  _325
REMARK  131  A    between atoms: _324  and  _327
REMARK  132  A    between atoms: _327  and  _328
REMARK  133  A    between atoms: _330  and  _332
REMARK  134  A    between atoms: _332  and  _333
REMARK  135  A    between atoms: _332  and  _335
REMARK  136  A    between atoms: _335  and  _336
REMARK  137  A    between atoms: _336  and  _337
REMARK  138  A    between atoms: _340  and  _342
REMARK  139  A    between atoms: _342  and  _343
REMARK  140  A    between atoms: _345  and  _347
REMARK  141  A    between atoms: _347  and  _348
REMARK  142  A    between atoms: _351  and  _353
REMARK  143  A    between atoms: _353  and  _354
REMARK  144  A    between atoms: _353  and  _356
REMARK  145  A    between atoms: _356  and  _357
REMARK  146  A    between atoms: _363  and  _365
REMARK  147  A    between atoms: _365  and  _366
REMARK  148  A    between atoms: _365  and  _368
REMARK  149  A    between atoms: _368  and  _369
REMARK  150  A    between atoms: _374  and  _375
REMARK  151  A    between atoms: _377  and  _379
REMARK  152  A    between atoms: _379  and  _380
REMARK  153  A    between atoms: _379  and  _382
REMARK  154  A    between atoms: _382  and  _383
REMARK  155  A    between atoms: _383  and  _384
REMARK  156  A    between atoms: _384  and  _385
REMARK  157  A    between atoms: _385  and  _386
REMARK  158  A    between atoms: _390  and  _392
REMARK  159  A    between atoms: _392  and  _393
REMARK  160  A    between atoms: _392  and  _395
REMARK  161  A    between atoms: _395  and  _396
REMARK  162  A    between atoms: _399  and  _401
REMARK  163  A    between atoms: _401  and  _402
REMARK  164  A    between atoms: _401  and  _404
REMARK  165  A    between atoms: _404  and  _405
REMARK  166  A    between atoms: _405  and  _406
REMARK  167  A    between atoms: _409  and  _411
REMARK  168  A    between atoms: _411  and  _412
REMARK  169  A    between atoms: _411  and  _414
REMARK  170  A    between atoms: _414  and  _415
REMARK  171  A    between atoms: _425  and  _427
REMARK  172  A    between atoms: _427  and  _428
REMARK  173  A    between atoms: _427  and  _430
REMARK  174  A    between atoms: _430  and  _431
REMARK  175  A    between atoms: _431  and  _432
REMARK  176  A    between atoms: _437  and  _439
REMARK  177  A    between atoms: _439  and  _440
REMARK  178  A    between atoms: _439  and  _442
REMARK  179  A    between atoms: _444  and  _446
REMARK  180  A    between atoms: _446  and  _447
REMARK  181  A    between atoms: _449  and  _451
REMARK  182  A    between atoms: _451  and  _452
REMARK  183  A    between atoms: _451  and  _454
REMARK  184  A    between atoms: _454  and  _455
REMARK  185  A    between atoms: _458  and  _460
REMARK  186  A    between atoms: _460  and  _461
REMARK  187  A    between atoms: _460  and  _463
REMARK  188  A    between atoms: _466  and  _468
REMARK  189  A    between atoms: _468  and  _469
REMARK  190  A    between atoms: _468  and  _471
REMARK  191  A    between atoms: _471  and  _472
REMARK  192  A    between atoms: _472  and  _473
REMARK  193  A    between atoms: _478  and  _480
REMARK  194  A    between atoms: _480  and  _481
REMARK  195  A    between atoms: _480  and  _483
REMARK  196  A    between atoms: _483  and  _484
REMARK  197  A    between atoms: _487  and  _489
REMARK  198  A    between atoms: _489  and  _490
REMARK  199  A    between atoms: _489  and  _492
REMARK  200  A    between atoms: _492  and  _493
REMARK  201  A    between atoms: _496  and  _498
REMARK  202  A    between atoms: _498  and  _499
REMARK  203  A    between atoms: _498  and  _501
REMARK  204  A    between atoms: _501  and  _502
REMARK  205  A    between atoms: _502  and  _503
REMARK  206  A    between atoms: _505  and  _507
REMARK  207  A    between atoms: _507  and  _508
REMARK  208  A    between atoms: _507  and  _510
REMARK  209  A    between atoms: _510  and  _511
REMARK  210  A    between atoms: _514  and  _516
REMARK  211  A    between atoms: _516  and  _517
REMARK  212  A    between atoms: _516  and  _519
REMARK  213  A    between atoms: _519  and  _520
REMARK  214  A    between atoms: _521  and  ZN_650
REMARK  215  A    between atoms: _525  and  _527
REMARK  216  A    between atoms: _527  and  _528
REMARK  217  A    between atoms: _527  and  _530
REMARK  218  A    between atoms: _530  and  _531
REMARK  219  A    between atoms: _531  and  _532
REMARK  220  A    between atoms: _532  and  _533
REMARK  221  A    between atoms: _542  and  _544
REMARK  222  A    between atoms: _544  and  _545
REMARK  223  A    between atoms: _548  and  _550
REMARK  224  A    between atoms: _550  and  _551
REMARK  225  A    between atoms: _550  and  _553
REMARK  226  A    between atoms: _553  and  _554
REMARK  227  A    between atoms: _557  and  _559
REMARK  228  A    between atoms: _559  and  _560
REMARK  229  A    between atoms: _559  and  _562
REMARK  230  A    between atoms: _562  and  _563
REMARK  231  A    between atoms: _566  and  _568
REMARK  232  A    between atoms: _568  and  _569
REMARK  233  A    between atoms: _571  and  _573
REMARK  234  A    between atoms: _573  and  _574
REMARK  235  A    between atoms: _573  and  _576
REMARK  236  A    between atoms: _576  and  _577
REMARK  237  A    between atoms: _579  and  _581
REMARK  238  A    between atoms: _581  and  _582
REMARK  239  A    between atoms: _581  and  _584
REMARK  240  A    between atoms: _584  and  _585
REMARK  241  A    between atoms: _585  and  _586
REMARK  242  A    between atoms: _588  and  _590
REMARK  243  A    between atoms: _590  and  _591
REMARK  244  A    between atoms: _590  and  _593
REMARK  245  A    between atoms: _593  and  _594
REMARK  246  A    between atoms: _594  and  _595
REMARK  247  A    between atoms: _598  and  _600
REMARK  248  A    between atoms: _600  and  _601
REMARK  249  A    between atoms: _600  and  _603
REMARK  250  A    between atoms: _603  and  _604
REMARK  251  A    between atoms: _604  and  _605
REMARK  252  A    between atoms: _605  and  _606
REMARK  253  A    between atoms: _615  and  _617
REMARK  254  A    between atoms: _617  and  _618
REMARK  255  A    between atoms: _617  and  _620
REMARK  256  A    between atoms: _620  and  _621
REMARK  257  A    between atoms: _627  and  _629
REMARK  258  A    between atoms: _629  and  _630
REMARK  259  A    between atoms: _629  and  _632
REMARK  260  A    between atoms: _632  and  _633
REMARK  261  A    between atoms: _636  and  _638
REMARK  262  A    between atoms: _638  and  _639
REMARK  263  A    between atoms: _641  and  _643
REMARK  264  A    between atoms: _643  and  _644
REMARK  265  A    between atoms: _643  and  _646
REMARK  266  A    between atoms: _646  and  _647
REMARK                            x       y       z     vdW  Elec       q    Type
REMARK                         _______ _______ _______ _____ _____    ______ ____
ROOT
ATOM      1  O   HOH     1      20.324 -41.578 -13.734  0.00  0.00    +0.000 OA
ENDROOT
TORSDOF 0
REMARK  Name = ../refined-set-2016/4hws/4hws_pocket.pdb
REMARK  266 active torsions:
REMARK  status: ('A' for Active; 'I' for Inactive)
REMARK    1  A    between atoms: _1  and  _3
REMARK    2  A    between atoms: _3  and  _4
REMARK    3  A    between atoms: _6  and  _8
REMARK    4  A    between atoms: _8  and  _9
REMARK    5  A    between atoms: _8  and  _11
REMARK    6  A    between atoms: _14  and  _16
REMARK    7  A    between atoms: _16  and  _17
REMARK    8  A    between atoms: _16  and  _19
REMARK    9  A    between atoms: _19  and  _20
REMARK   10  A    between atoms: _25  and  _27
REMARK   11  A    between atoms: _27  and  _28
REMARK   12  A    between atoms: _27  and  _30
REMARK   13  A    between atoms: _30  and  _31
REMARK   14  A    between atoms: _36  and  _37
REMARK   15  A    between atoms: _40  and  _41
REMARK   16  A    between atoms: _46  and  _48
REMARK   17  A    between atoms: _48  and  _49
REMARK   18  A    between atoms: _48  and  _51
REMARK   19  A    between atoms: _51  and  _52
REMARK   20  A    between atoms: _52  and  _53
REMARK   21  A    between atoms: _55  and  _57
REMARK   22  A    between atoms: _57  and  _58
REMARK   23  A    between atoms: _57  and  _60
REMARK   24  A    between atoms: _60  and  _61
REMARK   25  A    between atoms: _66  and  _68
REMARK   26  A    between atoms: _68  and  _69
REMARK   27  A    between atoms: _68  and  _71
REMARK   28  A    between atoms: _71  and  _72
REMARK   29  A    between atoms: _72  and  ZN_650
REMARK   30  A    between atoms: _74  and  _75
REMARK   31  A    between atoms: _80  and  _82
REMARK   32  A    between atoms: _82  and  _83
REMARK   33  A    between atoms: _82  and  _85
REMARK   34  A    between atoms: _85  and  _86
REMARK   35  A    between atoms: _91  and  _93
REMARK   36  A    between atoms: _93  and  _94
REMARK   37  A    between atoms: _93  and  _96
REMARK   38  A    between atoms: _98  and  _100
REMARK   39  A    between atoms: _100  and  _101
REMARK   40  A    between atoms: _100  and  _103
REMARK   41  A    between atoms: _103  and  _104
REMARK   42  A    between atoms: _109  and  _111
REMARK   43  A    between atoms: _111  and  _112
REMARK   44  A    between atoms: _111  and  _114
REMARK   45  A    between atoms: _114  and  _115
REMARK   46  A    between atoms: _115  and  _116
REMARK   47  A    between atoms: _116  and  _117
REMARK   48  A    between atoms: _126  and  _128
REMARK   49  A    between atoms: _128  and  _129
REMARK   50  A    between atoms: _128  and  _131
REMARK   51  A    between atoms: _131  and  _132
REMARK   52  A    between atoms: _137  and  _139
REMARK   53  A    between atoms: _139  and  _140
REMARK   54  A    between atoms: _139  and  _142
REMARK   55  A    between atoms: _142  and  _143
REMARK   56  A    between atoms: _143  and  _144
REMARK   57  A    between atoms: _147  and  _149
REMARK   58  A    between atoms: _149  and  _150
REMARK   59  A    between atoms: _149  and  _152
REMARK   60  A    between atoms: _152  and  _153
REMARK   61  A    between atoms: _155  and  _157
REMARK   62  A    between atoms: _157  and  _158
REMARK   63  A    between atoms: _157  and  _160
REMARK   64  A    between atoms: _160  and  _161
REMARK   65  A    between atoms: _164  and  _166
REMARK   66  A    between atoms: _166  and  _167
REMARK   67  A    between atoms: _166  and  _169
REMARK   68  A    between atoms: _169  and  _170
REMARK   69  A    between atoms: _175  and  _177
REMARK   70  A    between atoms: _177  and  _178
REMARK   71  A    between atoms: _180  and  _182
REMARK   72  A    between atoms: _182  and  _183
REMARK   73  A    between atoms: _182  and  _185
REMARK   74  A    between atoms: _185  and  _186
REMARK   75  A    between atoms: _189  and  _191
REMARK   76  A    between atoms: _191  and  _192
REMARK   77  A    between atoms: _191  and  _194
REMARK   78  A    between atoms: _194  and  _195
REMARK   79  A    between atoms: _195  and  _196
REMARK   80  A    between atoms: _198  and  _200
REMARK   81  A    between atoms: _200  and  _201
REMARK   82  A    between atoms: _200  and  _203
REMARK   83  A    between atoms: _203  and  _204
REMARK   84  A    between atoms: _204  and  _205
REMARK   85  A    between atoms: _205  and  _206
REMARK   86  A    between atoms: _215  and  _217
REMARK   87  A    between atoms: _217  and  _218
REMARK   88  A    between atoms: _217  and  _220
REMARK   89  A    between atoms: _223  and  _225
REMARK   90  A    between atoms: _225  and  _226
REMARK   91  A    between atoms: _225  and  _228
REMARK   92  A    between atoms: _228  and  _229
REMARK   93  A    between atoms: _229  and  _230
REMARK   94  A    between atoms: _230  and  _231
REMARK   95  A    between atoms: _240  and  _242
REMARK   96  A    between atoms: _242  and  _243
REMARK   97  A    between atoms: _245  and  _247
REMARK   98  A    between atoms: _247  and  _248
REMARK   99  A    between atoms: _247  and  _250
REMARK  100  A    between atoms: _250  and  _251
REMARK  101  A    between atoms: _257  and  _259
REMARK  102  A    between atoms: _259  and  _260
REMARK  103  A    between atoms: _259  and  _262
REMARK  104  A    between atoms: _262  and  _263
REMARK  105  A    between atoms: _266  and  _268
REMARK  106  A    between atoms: _268  and  _269
REMARK  107  A    between atoms: _268  and  _271
REMARK  108  A    between atoms: _271  and  _272
REMARK  109  A    between atoms: _272  and  _273
REMARK  110  A    between atoms: _278  and  _280
REMARK  111  A    between atoms: _280  and  _281
REMARK  112  A    between atoms: _280  and  _283
REMARK  113  A    between atoms: _283  and  _284
REMARK  114  A    between atoms: _287  and  _289
REMARK  115  A    between atoms: _289  and  _290
REMARK  116  A    between atoms: _289  and  _292
REMARK  117  A    between atoms: _292  and  _293
REMARK  118  A    between atoms: _296  and  _298
REMARK  119  A    between atoms: _298  and  _299
REMARK  120  A    between atoms: _302  and  _304
REMARK  121  A    between atoms: _304  and  _305
REMARK  122  A    between atoms: _304  and  _307
REMARK  123  A    between atoms: _307  and  _308
REMARK  124  A    between atoms: _312  and  ZN_650
REMARK  125  A    between atoms: _313  and  _315
REMARK  126  A    between atoms: _315  and  _316
REMARK  127  A    between atoms: _315  and  _318
REMARK  128  A    between atoms: _318  and  _319
REMARK  129  A    between atoms: _322  and  _324
REMARK  130  A    between atoms: _324  and  _325
REMARK  131  A    between atoms: _324  and  _327
REMARK  132  A    between atoms: _327  and  _328
REMARK  133  A    between atoms: _330  and  _332
REMARK  134  A    between atoms: _332  and  _333
REMARK  135  A    between atoms: _332  and  _335
REMARK  136  A    between atoms: _335  and  _336
REMARK  137  A    between atoms: _336  and  _337
REMARK  138  A    between atoms: _340  and  _342
REMARK  139  A    between atoms: _342  and  _343
REMARK  140  A    between atoms: _345  and  _347
REMARK  141  A    between atoms: _347  and  _348
REMARK  142  A    between atoms: _351  and  _353
REMARK  143  A    between atoms: _353  and  _354
REMARK  144  A    between atoms: _353  and  _356
REMARK  145  A    between atoms: _356  and  _357
REMARK  146  A    between atoms: _363  and  _365
REMARK  147  A    between atoms: _365  and  _366
REMARK  148  A    between atoms: _365  and  _368
REMARK  149  A    between atoms: _368  and  _369
REMARK  150  A    between atoms: _374  and  _375
REMARK  151  A    between atoms: _377  and  _379
REMARK  152  A    between atoms: _379  and  _380
REMARK  153  A    between atoms: _379  and  _382
REMARK  154  A    between atoms: _382  and  _383
REMARK  155  A    between atoms: _383  and  _384
REMARK  156  A    between atoms: _384  and  _385
REMARK  157  A    between atoms: _385  and  _386
REMARK  158  A    between atoms: _390  and  _392
REMARK  159  A    between atoms: _392  and  _393
REMARK  160  A    between atoms: _392  and  _395
REMARK  161  A    between atoms: _395  and  _396
REMARK  162  A    between atoms: _399  and  _401
REMARK  163  A    between atoms: _401  and  _402
REMARK  164  A    between atoms: _401  and  _404
REMARK  165  A    between atoms: _404  and  _405
REMARK  166  A    between atoms: _405  and  _406
REMARK  167  A    between atoms: _409  and  _411
REMARK  168  A    between atoms: _411  and  _412
REMARK  169  A    between atoms: _411  and  _414
REMARK  170  A    between atoms: _414  and  _415
REMARK  171  A    between atoms: _425  and  _427
REMARK  172  A    between atoms: _427  and  _428
REMARK  173  A    between atoms: _427  and  _430
REMARK  174  A    between atoms: _430  and  _431
REMARK  175  A    between atoms: _431  and  _432
REMARK  176  A    between atoms: _437  and  _439
REMARK  177  A    between atoms: _439  and  _440
REMARK  178  A    between atoms: _439  and  _442
REMARK  179  A    between atoms: _444  and  _446
REMARK  180  A    between atoms: _446  and  _447
REMARK  181  A    between atoms: _449  and  _451
REMARK  182  A    between atoms: _451  and  _452
REMARK  183  A    between atoms: _451  and  _454
REMARK  184  A    between atoms: _454  and  _455
REMARK  185  A    between atoms: _458  and  _460
REMARK  186  A    between atoms: _460  and  _461
REMARK  187  A    between atoms: _460  and  _463
REMARK  188  A    between atoms: _466  and  _468
REMARK  189  A    between atoms: _468  and  _469
REMARK  190  A    between atoms: _468  and  _471
REMARK  191  A    between atoms: _471  and  _472
REMARK  192  A    between atoms: _472  and  _473
REMARK  193  A    between atoms: _478  and  _480
REMARK  194  A    between atoms: _480  and  _481
REMARK  195  A    between atoms: _480  and  _483
REMARK  196  A    between atoms: _483  and  _484
REMARK  197  A    between atoms: _487  and  _489
REMARK  198  A    between atoms: _489  and  _490
REMARK  199  A    between atoms: _489  and  _492
REMARK  200  A    between atoms: _492  and  _493
REMARK  201  A    between atoms: _496  and  _498
REMARK  202  A    between atoms: _498  and  _499
REMARK  203  A    between atoms: _498  and  _501
REMARK  204  A    between atoms: _501  and  _502
REMARK  205  A    between atoms: _502  and  _503
REMARK  206  A    between atoms: _505  and  _507
REMARK  207  A    between atoms: _507  and  _508
REMARK  208  A    between atoms: _507  and  _510
REMARK  209  A    between atoms: _510  and  _511
REMARK  210  A    between atoms: _514  and  _516
REMARK  211  A    between atoms: _516  and  _517
REMARK  212  A    between atoms: _516  and  _519
REMARK  213  A    between atoms: _519  and  _520
REMARK  214  A    between atoms: _521  and  ZN_650
REMARK  215  A    between atoms: _525  and  _527
REMARK  216  A    between atoms: _527  and  _528
REMARK  217  A    between atoms: _527  and  _530
REMARK  218  A    between atoms: _530  and  _531
REMARK  219  A    between atoms: _531  and  _532
REMARK  220  A    between atoms: _532  and  _533
REMARK  221  A    between atoms: _542  and  _544
REMARK  222  A    between atoms: _544  and  _545
REMARK  223  A    between atoms: _548  and  _550
REMARK  224  A    between atoms: _550  and  _551
REMARK  225  A    between atoms: _550  and  _553
REMARK  226  A    between atoms: _553  and  _554
REMARK  227  A    between atoms: _557  and  _559
REMARK  228  A    between atoms: _559  and  _560
REMARK  229  A    between atoms: _559  and  _562
REMARK  230  A    between atoms: _562  and  _563
REMARK  231  A    between atoms: _566  and  _568
REMARK  232  A    between atoms: _568  and  _569
REMARK  233  A    between atoms: _571  and  _573
REMARK  234  A    between atoms: _573  and  _574
REMARK  235  A    between atoms: _573  and  _576
REMARK  236  A    between atoms: _576  and  _577
REMARK  237  A    between atoms: _579  and  _581
REMARK  238  A    between atoms: _581  and  _582
REMARK  239  A    between atoms: _581  and  _584
REMARK  240  A    between atoms: _584  and  _585
REMARK  241  A    between atoms: _585  and  _586
REMARK  242  A    between atoms: _588  and  _590
REMARK  243  A    between atoms: _590  and  _591
REMARK  244  A    between atoms: _590  and  _593
REMARK  245  A    between atoms: _593  and  _594
REMARK  246  A    between atoms: _594  and  _595
REMARK  247  A    between atoms: _598  and  _600
REMARK  248  A    between atoms: _600  and  _601
REMARK  249  A    between atoms: _600  and  _603
REMARK  250  A    between atoms: _603  and  _604
REMARK  251  A    between atoms: _604  and  _605
REMARK  252  A    between atoms: _605  and  _606
REMARK  253  A    between atoms: _615  and  _617
REMARK  254  A    between atoms: _617  and  _618
REMARK  255  A    between atoms: _617  and  _620
REMARK  256  A    between atoms: _620  and  _621
REMARK  257  A    between atoms: _627  and  _629
REMARK  258  A    between atoms: _629  and  _630
REMARK  259  A    between atoms: _629  and  _632
REMARK  260  A    between atoms: _632  and  _633
REMARK  261  A    between atoms: _636  and  _638
REMARK  262  A    between atoms: _638  and  _639
REMARK  263  A    between atoms: _641  and  _643
REMARK  264  A    between atoms: _643  and  _644
REMARK  265  A    between atoms: _643  and  _646
REMARK  266  A    between atoms: _646  and  _647
REMARK                            x       y       z     vdW  Elec       q    Type
REMARK                         _______ _______ _______ _____ _____    ______ ____
ROOT
ATOM      1  O   HOH     1      13.277 -39.032 -12.132  0.00  0.00    +0.000 OA
ENDROOT
TORSDOF 0
REMARK  Name = ../refined-set-2016/4hws/4hws_pocket.pdb
REMARK  266 active torsions:
REMARK  status: ('A' for Active; 'I' for Inactive)
REMARK    1  A    between atoms: _1  and  _3
REMARK    2  A    between atoms: _3  and  _4
REMARK    3  A    between atoms: _6  and  _8
REMARK    4  A    between atoms: _8  and  _9
REMARK    5  A    between atoms: _8  and  _11
REMARK    6  A    between atoms: _14  and  _16
REMARK    7  A    between atoms: _16  and  _17
REMARK    8  A    between atoms: _16  and  _19
REMARK    9  A    between atoms: _19  and  _20
REMARK   10  A    between atoms: _25  and  _27
REMARK   11  A    between atoms: _27  and  _28
REMARK   12  A    between atoms: _27  and  _30
REMARK   13  A    between atoms: _30  and  _31
REMARK   14  A    between atoms: _36  and  _37
REMARK   15  A    between atoms: _40  and  _41
REMARK   16  A    between atoms: _46  and  _48
REMARK   17  A    between atoms: _48  and  _49
REMARK   18  A    between atoms: _48  and  _51
REMARK   19  A    between atoms: _51  and  _52
REMARK   20  A    between atoms: _52  and  _53
REMARK   21  A    between atoms: _55  and  _57
REMARK   22  A    between atoms: _57  and  _58
REMARK   23  A    between atoms: _57  and  _60
REMARK   24  A    between atoms: _60  and  _61
REMARK   25  A    between atoms: _66  and  _68
REMARK   26  A    between atoms: _68  and  _69
REMARK   27  A    between atoms: _68  and  _71
REMARK   28  A    between atoms: _71  and  _72
REMARK   29  A    between atoms: _72  and  ZN_650
REMARK   30  A    between atoms: _74  and  _75
REMARK   31  A    between atoms: _80  and  _82
REMARK   32  A    between atoms: _82  and  _83
REMARK   33  A    between atoms: _82  and  _85
REMARK   34  A    between atoms: _85  and  _86
REMARK   35  A    between atoms: _91  and  _93
REMARK   36  A    between atoms: _93  and  _94
REMARK   37  A    between atoms: _93  and  _96
REMARK   38  A    between atoms: _98  and  _100
REMARK   39  A    between atoms: _100  and  _101
REMARK   40  A    between atoms: _100  and  _103
REMARK   41  A    between atoms: _103  and  _104
REMARK   42  A    between atoms: _109  and  _111
REMARK   43  A    between atoms: _111  and  _112
REMARK   44  A    between atoms: _111  and  _114
REMARK   45  A    between atoms: _114  and  _115
REMARK   46  A    between atoms: _115  and  _116
REMARK   47  A    between atoms: _116  and  _117
REMARK   48  A    between atoms: _126  and  _128
REMARK   49  A    between atoms: _128  and  _129
REMARK   50  A    between atoms: _128  and  _131
REMARK   51  A    between atoms: _131  and  _132
REMARK   52  A    between atoms: _137  and  _139
REMARK   53  A    between atoms: _139  and  _140
REMARK   54  A    between atoms: _139  and  _142
REMARK   55  A    between atoms: _142  and  _143
REMARK   56  A    between atoms: _143  and  _144
REMARK   57  A    between atoms: _147  and  _149
REMARK   58  A    between atoms: _149  and  _150
REMARK   59  A    between atoms: _149  and  _152
REMARK   60  A    between atoms: _152  and  _153
REMARK   61  A    between atoms: _155  and  _157
REMARK   62  A    between atoms: _157  and  _158
REMARK   63  A    between atoms: _157  and  _160
REMARK   64  A    between atoms: _160  and  _161
REMARK   65  A    between atoms: _164  and  _166
REMARK   66  A    between atoms: _166  and  _167
REMARK   67  A    between atoms: _166  and  _169
REMARK   68  A    between atoms: _169  and  _170
REMARK   69  A    between atoms: _175  and  _177
REMARK   70  A    between atoms: _177  and  _178
REMARK   71  A    between atoms: _180  and  _182
REMARK   72  A    between atoms: _182  and  _183
REMARK   73  A    between atoms: _182  and  _185
REMARK   74  A    between atoms: _185  and  _186
REMARK   75  A    between atoms: _189  and  _191
REMARK   76  A    between atoms: _191  and  _192
REMARK   77  A    between atoms: _191  and  _194
REMARK   78  A    between atoms: _194  and  _195
REMARK   79  A    between atoms: _195  and  _196
REMARK   80  A    between atoms: _198  and  _200
REMARK   81  A    between atoms: _200  and  _201
REMARK   82  A    between atoms: _200  and  _203
REMARK   83  A    between atoms: _203  and  _204
REMARK   84  A    between atoms: _204  and  _205
REMARK   85  A    between atoms: _205  and  _206
REMARK   86  A    between atoms: _215  and  _217
REMARK   87  A    between atoms: _217  and  _218
REMARK   88  A    between atoms: _217  and  _220
REMARK   89  A    between atoms: _223  and  _225
REMARK   90  A    between atoms: _225  and  _226
REMARK   91  A    between atoms: _225  and  _228
REMARK   92  A    between atoms: _228  and  _229
REMARK   93  A    between atoms: _229  and  _230
REMARK   94  A    between atoms: _230  and  _231
REMARK   95  A    between atoms: _240  and  _242
REMARK   96  A    between atoms: _242  and  _243
REMARK   97  A    between atoms: _245  and  _247
REMARK   98  A    between atoms: _247  and  _248
REMARK   99  A    between atoms: _247  and  _250
REMARK  100  A    between atoms: _250  and  _251
REMARK  101  A    between atoms: _257  and  _259
REMARK  102  A    between atoms: _259  and  _260
REMARK  103  A    between atoms: _259  and  _262
REMARK  104  A    between atoms: _262  and  _263
REMARK  105  A    between atoms: _266  and  _268
REMARK  106  A    between atoms: _268  and  _269
REMARK  107  A    between atoms: _268  and  _271
REMARK  108  A    between atoms: _271  and  _272
REMARK  109  A    between atoms: _272  and  _273
REMARK  110  A    between atoms: _278  and  _280
REMARK  111  A    between atoms: _280  and  _281
REMARK  112  A    between atoms: _280  and  _283
REMARK  113  A    between atoms: _283  and  _284
REMARK  114  A    between atoms: _287  and  _289
REMARK  115  A    between atoms: _289  and  _290
REMARK  116  A    between atoms: _289  and  _292
REMARK  117  A    between atoms: _292  and  _293
REMARK  118  A    between atoms: _296  and  _298
REMARK  119  A    between atoms: _298  and  _299
REMARK  120  A    between atoms: _302  and  _304
REMARK  121  A    between atoms: _304  and  _305
REMARK  122  A    between atoms: _304  and  _307
REMARK  123  A    between atoms: _307  and  _308
REMARK  124  A    between atoms: _312  and  ZN_650
REMARK  125  A    between atoms: _313  and  _315
REMARK  126  A    between atoms: _315  and  _316
REMARK  127  A    between atoms: _315  and  _318
REMARK  128  A    between atoms: _318  and  _319
REMARK  129  A    between atoms: _322  and  _324
REMARK  130  A    between atoms: _324  and  _325
REMARK  131  A    between atoms: _324  and  _327
REMARK  132  A    between atoms: _327  and  _328
REMARK  133  A    between atoms: _330  and  _332
REMARK  134  A    between atoms: _332  and  _333
REMARK  135  A    between atoms: _332  and  _335
REMARK  136  A    between atoms: _335  and  _336
REMARK  137  A    between atoms: _336  and  _337
REMARK  138  A    between atoms: _340  and  _342
REMARK  139  A    between atoms: _342  and  _343
REMARK  140  A    between atoms: _345  and  _347
REMARK  141  A    between atoms: _347  and  _348
REMARK  142  A    between atoms: _351  and  _353
REMARK  143  A    between atoms: _353  and  _354
REMARK  144  A    between atoms: _353  and  _356
REMARK  145  A    between atoms: _356  and  _357
REMARK  146  A    between atoms: _363  and  _365
REMARK  147  A    between atoms: _365  and  _366
REMARK  148  A    between atoms: _365  and  _368
REMARK  149  A    between atoms: _368  and  _369
REMARK  150  A    between atoms: _374  and  _375
REMARK  151  A    between atoms: _377  and  _379
REMARK  152  A    between atoms: _379  and  _380
REMARK  153  A    between atoms: _379  and  _382
REMARK  154  A    between atoms: _382  and  _383
REMARK  155  A    between atoms: _383  and  _384
REMARK  156  A    between atoms: _384  and  _385
REMARK  157  A    between atoms: _385  and  _386
REMARK  158  A    between atoms: _390  and  _392
REMARK  159  A    between atoms: _392  and  _393
REMARK  160  A    between atoms: _392  and  _395
REMARK  161  A    between atoms: _395  and  _396
REMARK  162  A    between atoms: _399  and  _401
REMARK  163  A    between atoms: _401  and  _402
REMARK  164  A    between atoms: _401  and  _404
REMARK  165  A    between atoms: _404  and  _405
REMARK  166  A    between atoms: _405  and  _406
REMARK  167  A    between atoms: _409  and  _411
REMARK  168  A    between atoms: _411  and  _412
REMARK  169  A    between atoms: _411  and  _414
REMARK  170  A    between atoms: _414  and  _415
REMARK  171  A    between atoms: _425  and  _427
REMARK  172  A    between atoms: _427  and  _428
REMARK  173  A    between atoms: _427  and  _430
REMARK  174  A    between atoms: _430  and  _431
REMARK  175  A    between atoms: _431  and  _432
REMARK  176  A    between atoms: _437  and  _439
REMARK  177  A    between atoms: _439  and  _440
REMARK  178  A    between atoms: _439  and  _442
REMARK  179  A    between atoms: _444  and  _446
REMARK  180  A    between atoms: _446  and  _447
REMARK  181  A    between atoms: _449  and  _451
REMARK  182  A    between atoms: _451  and  _452
REMARK  183  A    between atoms: _451  and  _454
REMARK  184  A    between atoms: _454  and  _455
REMARK  185  A    between atoms: _458  and  _460
REMARK  186  A    between atoms: _460  and  _461
REMARK  187  A    between atoms: _460  and  _463
REMARK  188  A    between atoms: _466  and  _468
REMARK  189  A    between atoms: _468  and  _469
REMARK  190  A    between atoms: _468  and  _471
REMARK  191  A    between atoms: _471  and  _472
REMARK  192  A    between atoms: _472  and  _473
REMARK  193  A    between atoms: _478  and  _480
REMARK  194  A    between atoms: _480  and  _481
REMARK  195  A    between atoms: _480  and  _483
REMARK  196  A    between atoms: _483  and  _484
REMARK  197  A    between atoms: _487  and  _489
REMARK  198  A    between atoms: _489  and  _490
REMARK  199  A    between atoms: _489  and  _492
REMARK  200  A    between atoms: _492  and  _493
REMARK  201  A    between atoms: _496  and  _498
REMARK  202  A    between atoms: _498  and  _499
REMARK  203  A    between atoms: _498  and  _501
REMARK  204  A    between atoms: _501  and  _502
REMARK  205  A    between atoms: _502  and  _503
REMARK  206  A    between atoms: _505  and  _507
REMARK  207  A    between atoms: _507  and  _508
REMARK  208  A    between atoms: _507  and  _510
REMARK  209  A    between atoms: _510  and  _511
REMARK  210  A    between atoms: _514  and  _516
REMARK  211  A    between atoms: _516  and  _517
REMARK  212  A    between atoms: _516  and  _519
REMARK  213  A    between atoms: _519  and  _520
REMARK  214  A    between atoms: _521  and  ZN_650
REMARK  215  A    between atoms: _525  and  _527
REMARK  216  A    between atoms: _527  and  _528
REMARK  217  A    between atoms: _527  and  _530
REMARK  218  A    between atoms: _530  and  _531
REMARK  219  A    between atoms: _531  and  _532
REMARK  220  A    between atoms: _532  and  _533
REMARK  221  A    between atoms: _542  and  _544
REMARK  222  A    between atoms: _544  and  _545
REMARK  223  A    between atoms: _548  and  _550
REMARK  224  A    between atoms: _550  and  _551
REMARK  225  A    between atoms: _550  and  _553
REMARK  226  A    between atoms: _553  and  _554
REMARK  227  A    between atoms: _557  and  _559
REMARK  228  A    between atoms: _559  and  _560
REMARK  229  A    between atoms: _559  and  _562
REMARK  230  A    between atoms: _562  and  _563
REMARK  231  A    between atoms: _566  and  _568
REMARK  232  A    between atoms: _568  and  _569
REMARK  233  A    between atoms: _571  and  _573
REMARK  234  A    between atoms: _573  and  _574
REMARK  235  A    between atoms: _573  and  _576
REMARK  236  A    between atoms: _576  and  _577
REMARK  237  A    between atoms: _579  and  _581
REMARK  238  A    between atoms: _581  and  _582
REMARK  239  A    between atoms: _581  and  _584
REMARK  240  A    between atoms: _584  and  _585
REMARK  241  A    between atoms: _585  and  _586
REMARK  242  A    between atoms: _588  and  _590
REMARK  243  A    between atoms: _590  and  _591
REMARK  244  A    between atoms: _590  and  _593
REMARK  245  A    between atoms: _593  and  _594
REMARK  246  A    between atoms: _594  and  _595
REMARK  247  A    between atoms: _598  and  _600
REMARK  248  A    between atoms: _600  and  _601
REMARK  249  A    between atoms: _600  and  _603
REMARK  250  A    between atoms: _603  and  _604
REMARK  251  A    between atoms: _604  and  _605
REMARK  252  A    between atoms: _605  and  _606
REMARK  253  A    between atoms: _615  and  _617
REMARK  254  A    between atoms: _617  and  _618
REMARK  255  A    between atoms: _617  and  _620
REMARK  256  A    between atoms: _620  and  _621
REMARK  257  A    between atoms: _627  and  _629
REMARK  258  A    between atoms: _629  and  _630
REMARK  259  A    between atoms: _629  and  _632
REMARK  260  A    between atoms: _632  and  _633
REMARK  261  A    between atoms: _636  and  _638
REMARK  262  A    between atoms: _638  and  _639
REMARK  263  A    between atoms: _641  and  _643
REMARK  264  A    between atoms: _643  and  _644
REMARK  265  A    between atoms: _643  and  _646
REMARK  266  A    between atoms: _646  and  _647
REMARK                            x       y       z     vdW  Elec       q    Type
REMARK                         _______ _______ _______ _____ _____    ______ ____
ROOT
ATOM      1  O   HOH     1      11.010 -40.456 -14.351  0.00  0.00    +0.000 OA
ENDROOT
TORSDOF 0
REMARK  Name = ../refined-set-2016/4hws/4hws_pocket.pdb
REMARK  266 active torsions:
REMARK  status: ('A' for Active; 'I' for Inactive)
REMARK    1  A    between atoms: _1  and  _3
REMARK    2  A    between atoms: _3  and  _4
REMARK    3  A    between atoms: _6  and  _8
REMARK    4  A    between atoms: _8  and  _9
REMARK    5  A    between atoms: _8  and  _11
REMARK    6  A    between atoms: _14  and  _16
REMARK    7  A    between atoms: _16  and  _17
REMARK    8  A    between atoms: _16  and  _19
REMARK    9  A    between atoms: _19  and  _20
REMARK   10  A    between atoms: _25  and  _27
REMARK   11  A    between atoms: _27  and  _28
REMARK   12  A    between atoms: _27  and  _30
REMARK   13  A    between atoms: _30  and  _31
REMARK   14  A    between atoms: _36  and  _37
REMARK   15  A    between atoms: _40  and  _41
REMARK   16  A    between atoms: _46  and  _48
REMARK   17  A    between atoms: _48  and  _49
REMARK   18  A    between atoms: _48  and  _51
REMARK   19  A    between atoms: _51  and  _52
REMARK   20  A    between atoms: _52  and  _53
REMARK   21  A    between atoms: _55  and  _57
REMARK   22  A    between atoms: _57  and  _58
REMARK   23  A    between atoms: _57  and  _60
REMARK   24  A    between atoms: _60  and  _61
REMARK   25  A    between atoms: _66  and  _68
REMARK   26  A    between atoms: _68  and  _69
REMARK   27  A    between atoms: _68  and  _71
REMARK   28  A    between atoms: _71  and  _72
REMARK   29  A    between atoms: _72  and  ZN_650
REMARK   30  A    between atoms: _74  and  _75
REMARK   31  A    between atoms: _80  and  _82
REMARK   32  A    between atoms: _82  and  _83
REMARK   33  A    between atoms: _82  and  _85
REMARK   34  A    between atoms: _85  and  _86
REMARK   35  A    between atoms: _91  and  _93
REMARK   36  A    between atoms: _93  and  _94
REMARK   37  A    between atoms: _93  and  _96
REMARK   38  A    between atoms: _98  and  _100
REMARK   39  A    between atoms: _100  and  _101
REMARK   40  A    between atoms: _100  and  _103
REMARK   41  A    between atoms: _103  and  _104
REMARK   42  A    between atoms: _109  and  _111
REMARK   43  A    between atoms: _111  and  _112
REMARK   44  A    between atoms: _111  and  _114
REMARK   45  A    between atoms: _114  and  _115
REMARK   46  A    between atoms: _115  and  _116
REMARK   47  A    between atoms: _116  and  _117
REMARK   48  A    between atoms: _126  and  _128
REMARK   49  A    between atoms: _128  and  _129
REMARK   50  A    between atoms: _128  and  _131
REMARK   51  A    between atoms: _131  and  _132
REMARK   52  A    between atoms: _137  and  _139
REMARK   53  A    between atoms: _139  and  _140
REMARK   54  A    between atoms: _139  and  _142
REMARK   55  A    between atoms: _142  and  _143
REMARK   56  A    between atoms: _143  and  _144
REMARK   57  A    between atoms: _147  and  _149
REMARK   58  A    between atoms: _149  and  _150
REMARK   59  A    between atoms: _149  and  _152
REMARK   60  A    between atoms: _152  and  _153
REMARK   61  A    between atoms: _155  and  _157
REMARK   62  A    between atoms: _157  and  _158
REMARK   63  A    between atoms: _157  and  _160
REMARK   64  A    between atoms: _160  and  _161
REMARK   65  A    between atoms: _164  and  _166
REMARK   66  A    between atoms: _166  and  _167
REMARK   67  A    between atoms: _166  and  _169
REMARK   68  A    between atoms: _169  and  _170
REMARK   69  A    between atoms: _175  and  _177
REMARK   70  A    between atoms: _177  and  _178
REMARK   71  A    between atoms: _180  and  _182
REMARK   72  A    between atoms: _182  and  _183
REMARK   73  A    between atoms: _182  and  _185
REMARK   74  A    between atoms: _185  and  _186
REMARK   75  A    between atoms: _189  and  _191
REMARK   76  A    between atoms: _191  and  _192
REMARK   77  A    between atoms: _191  and  _194
REMARK   78  A    between atoms: _194  and  _195
REMARK   79  A    between atoms: _195  and  _196
REMARK   80  A    between atoms: _198  and  _200
REMARK   81  A    between atoms: _200  and  _201
REMARK   82  A    between atoms: _200  and  _203
REMARK   83  A    between atoms: _203  and  _204
REMARK   84  A    between atoms: _204  and  _205
REMARK   85  A    between atoms: _205  and  _206
REMARK   86  A    between atoms: _215  and  _217
REMARK   87  A    between atoms: _217  and  _218
REMARK   88  A    between atoms: _217  and  _220
REMARK   89  A    between atoms: _223  and  _225
REMARK   90  A    between atoms: _225  and  _226
REMARK   91  A    between atoms: _225  and  _228
REMARK   92  A    between atoms: _228  and  _229
REMARK   93  A    between atoms: _229  and  _230
REMARK   94  A    between atoms: _230  and  _231
REMARK   95  A    between atoms: _240  and  _242
REMARK   96  A    between atoms: _242  and  _243
REMARK   97  A    between atoms: _245  and  _247
REMARK   98  A    between atoms: _247  and  _248
REMARK   99  A    between atoms: _247  and  _250
REMARK  100  A    between atoms: _250  and  _251
REMARK  101  A    between atoms: _257  and  _259
REMARK  102  A    between atoms: _259  and  _260
REMARK  103  A    between atoms: _259  and  _262
REMARK  104  A    between atoms: _262  and  _263
REMARK  105  A    between atoms: _266  and  _268
REMARK  106  A    between atoms: _268  and  _269
REMARK  107  A    between atoms: _268  and  _271
REMARK  108  A    between atoms: _271  and  _272
REMARK  109  A    between atoms: _272  and  _273
REMARK  110  A    between atoms: _278  and  _280
REMARK  111  A    between atoms: _280  and  _281
REMARK  112  A    between atoms: _280  and  _283
REMARK  113  A    between atoms: _283  and  _284
REMARK  114  A    between atoms: _287  and  _289
REMARK  115  A    between atoms: _289  and  _290
REMARK  116  A    between atoms: _289  and  _292
REMARK  117  A    between atoms: _292  and  _293
REMARK  118  A    between atoms: _296  and  _298
REMARK  119  A    between atoms: _298  and  _299
REMARK  120  A    between atoms: _302  and  _304
REMARK  121  A    between atoms: _304  and  _305
REMARK  122  A    between atoms: _304  and  _307
REMARK  123  A    between atoms: _307  and  _308
REMARK  124  A    between atoms: _312  and  ZN_650
REMARK  125  A    between atoms: _313  and  _315
REMARK  126  A    between atoms: _315  and  _316
REMARK  127  A    between atoms: _315  and  _318
REMARK  128  A    between atoms: _318  and  _319
REMARK  129  A    between atoms: _322  and  _324
REMARK  130  A    between atoms: _324  and  _325
REMARK  131  A    between atoms: _324  and  _327
REMARK  132  A    between atoms: _327  and  _328
REMARK  133  A    between atoms: _330  and  _332
REMARK  134  A    between atoms: _332  and  _333
REMARK  135  A    between atoms: _332  and  _335
REMARK  136  A    between atoms: _335  and  _336
REMARK  137  A    between atoms: _336  and  _337
REMARK  138  A    between atoms: _340  and  _342
REMARK  139  A    between atoms: _342  and  _343
REMARK  140  A    between atoms: _345  and  _347
REMARK  141  A    between atoms: _347  and  _348
REMARK  142  A    between atoms: _351  and  _353
REMARK  143  A    between atoms: _353  and  _354
REMARK  144  A    between atoms: _353  and  _356
REMARK  145  A    between atoms: _356  and  _357
REMARK  146  A    between atoms: _363  and  _365
REMARK  147  A    between atoms: _365  and  _366
REMARK  148  A    between atoms: _365  and  _368
REMARK  149  A    between atoms: _368  and  _369
REMARK  150  A    between atoms: _374  and  _375
REMARK  151  A    between atoms: _377  and  _379
REMARK  152  A    between atoms: _379  and  _380
REMARK  153  A    between atoms: _379  and  _382
REMARK  154  A    between atoms: _382  and  _383
REMARK  155  A    between atoms: _383  and  _384
REMARK  156  A    between atoms: _384  and  _385
REMARK  157  A    between atoms: _385  and  _386
REMARK  158  A    between atoms: _390  and  _392
REMARK  159  A    between atoms: _392  and  _393
REMARK  160  A    between atoms: _392  and  _395
REMARK  161  A    between atoms: _395  and  _396
REMARK  162  A    between atoms: _399  and  _401
REMARK  163  A    between atoms: _401  and  _402
REMARK  164  A    between atoms: _401  and  _404
REMARK  165  A    between atoms: _404  and  _405
REMARK  166  A    between atoms: _405  and  _406
REMARK  167  A    between atoms: _409  and  _411
REMARK  168  A    between atoms: _411  and  _412
REMARK  169  A    between atoms: _411  and  _414
REMARK  170  A    between atoms: _414  and  _415
REMARK  171  A    between atoms: _425  and  _427
REMARK  172  A    between atoms: _427  and  _428
REMARK  173  A    between atoms: _427  and  _430
REMARK  174  A    between atoms: _430  and  _431
REMARK  175  A    between atoms: _431  and  _432
REMARK  176  A    between atoms: _437  and  _439
REMARK  177  A    between atoms: _439  and  _440
REMARK  178  A    between atoms: _439  and  _442
REMARK  179  A    between atoms: _444  and  _446
REMARK  180  A    between atoms: _446  and  _447
REMARK  181  A    between atoms: _449  and  _451
REMARK  182  A    between atoms: _451  and  _452
REMARK  183  A    between atoms: _451  and  _454
REMARK  184  A    between atoms: _454  and  _455
REMARK  185  A    between atoms: _458  and  _460
REMARK  186  A    between atoms: _460  and  _461
REMARK  187  A    between atoms: _460  and  _463
REMARK  188  A    between atoms: _466  and  _468
REMARK  189  A    between atoms: _468  and  _469
REMARK  190  A    between atoms: _468  and  _471
REMARK  191  A    between atoms: _471  and  _472
REMARK  192  A    between atoms: _472  and  _473
REMARK  193  A    between atoms: _478  and  _480
REMARK  194  A    between atoms: _480  and  _481
REMARK  195  A    between atoms: _480  and  _483
REMARK  196  A    between atoms: _483  and  _484
REMARK  197  A    between atoms: _487  and  _489
REMARK  198  A    between atoms: _489  and  _490
REMARK  199  A    between atoms: _489  and  _492
REMARK  200  A    between atoms: _492  and  _493
REMARK  201  A    between atoms: _496  and  _498
REMARK  202  A    between atoms: _498  and  _499
REMARK  203  A    between atoms: _498  and  _501
REMARK  204  A    between atoms: _501  and  _502
REMARK  205  A    between atoms: _502  and  _503
REMARK  206  A    between atoms: _505  and  _507
REMARK  207  A    between atoms: _507  and  _508
REMARK  208  A    between atoms: _507  and  _510
REMARK  209  A    between atoms: _510  and  _511
REMARK  210  A    between atoms: _514  and  _516
REMARK  211  A    between atoms: _516  and  _517
REMARK  212  A    between atoms: _516  and  _519
REMARK  213  A    between atoms: _519  and  _520
REMARK  214  A    between atoms: _521  and  ZN_650
REMARK  215  A    between atoms: _525  and  _527
REMARK  216  A    between atoms: _527  and  _528
REMARK  217  A    between atoms: _527  and  _530
REMARK  218  A    between atoms: _530  and  _531
REMARK  219  A    between atoms: _531  and  _532
REMARK  220  A    between atoms: _532  and  _533
REMARK  221  A    between atoms: _542  and  _544
REMARK  222  A    between atoms: _544  and  _545
REMARK  223  A    between atoms: _548  and  _550
REMARK  224  A    between atoms: _550  and  _551
REMARK  225  A    between atoms: _550  and  _553
REMARK  226  A    between atoms: _553  and  _554
REMARK  227  A    between atoms: _557  and  _559
REMARK  228  A    between atoms: _559  and  _560
REMARK  229  A    between atoms: _559  and  _562
REMARK  230  A    between atoms: _562  and  _563
REMARK  231  A    between atoms: _566  and  _568
REMARK  232  A    between atoms: _568  and  _569
REMARK  233  A    between atoms: _571  and  _573
REMARK  234  A    between atoms: _573  and  _574
REMARK  235  A    between atoms: _573  and  _576
REMARK  236  A    between atoms: _576  and  _577
REMARK  237  A    between atoms: _579  and  _581
REMARK  238  A    between atoms: _581  and  _582
REMARK  239  A    between atoms: _581  and  _584
REMARK  240  A    between atoms: _584  and  _585
REMARK  241  A    between atoms: _585  and  _586
REMARK  242  A    between atoms: _588  and  _590
REMARK  243  A    between atoms: _590  and  _591
REMARK  244  A    between atoms: _590  and  _593
REMARK  245  A    between atoms: _593  and  _594
REMARK  246  A    between atoms: _594  and  _595
REMARK  247  A    between atoms: _598  and  _600
REMARK  248  A    between atoms: _600  and  _601
REMARK  249  A    between atoms: _600  and  _603
REMARK  250  A    between atoms: _603  and  _604
REMARK  251  A    between atoms: _604  and  _605
REMARK  252  A    between atoms: _605  and  _606
REMARK  253  A    between atoms: _615  and  _617
REMARK  254  A    between atoms: _617  and  _618
REMARK  255  A    between atoms: _617  and  _620
REMARK  256  A    between atoms: _620  and  _621
REMARK  257  A    between atoms: _627  and  _629
REMARK  258  A    between atoms: _629  and  _630
REMARK  259  A    between atoms: _629  and  _632
REMARK  260  A    between atoms: _632  and  _633
REMARK  261  A    between atoms: _636  and  _638
REMARK  262  A    between atoms: _638  and  _639
REMARK  263  A    between atoms: _641  and  _643
REMARK  264  A    between atoms: _643  and  _644
REMARK  265  A    between atoms: _643  and  _646
REMARK  266  A    between atoms: _646  and  _647
REMARK                            x       y       z     vdW  Elec       q    Type
REMARK                         _______ _______ _______ _____ _____    ______ ____
ROOT
ATOM      1  O   HOH     1      16.577 -38.939  -9.322  0.00  0.00    +0.000 OA
ENDROOT
TORSDOF 0
REMARK  Name = ../refined-set-2016/4hws/4hws_pocket.pdb
REMARK  266 active torsions:
REMARK  status: ('A' for Active; 'I' for Inactive)
REMARK    1  A    between atoms: _1  and  _3
REMARK    2  A    between atoms: _3  and  _4
REMARK    3  A    between atoms: _6  and  _8
REMARK    4  A    between atoms: _8  and  _9
REMARK    5  A    between atoms: _8  and  _11
REMARK    6  A    between atoms: _14  and  _16
REMARK    7  A    between atoms: _16  and  _17
REMARK    8  A    between atoms: _16  and  _19
REMARK    9  A    between atoms: _19  and  _20
REMARK   10  A    between atoms: _25  and  _27
REMARK   11  A    between atoms: _27  and  _28
REMARK   12  A    between atoms: _27  and  _30
REMARK   13  A    between atoms: _30  and  _31
REMARK   14  A    between atoms: _36  and  _37
REMARK   15  A    between atoms: _40  and  _41
REMARK   16  A    between atoms: _46  and  _48
REMARK   17  A    between atoms: _48  and  _49
REMARK   18  A    between atoms: _48  and  _51
REMARK   19  A    between atoms: _51  and  _52
REMARK   20  A    between atoms: _52  and  _53
REMARK   21  A    between atoms: _55  and  _57
REMARK   22  A    between atoms: _57  and  _58
REMARK   23  A    between atoms: _57  and  _60
REMARK   24  A    between atoms: _60  and  _61
REMARK   25  A    between atoms: _66  and  _68
REMARK   26  A    between atoms: _68  and  _69
REMARK   27  A    between atoms: _68  and  _71
REMARK   28  A    between atoms: _71  and  _72
REMARK   29  A    between atoms: _72  and  ZN_650
REMARK   30  A    between atoms: _74  and  _75
REMARK   31  A    between atoms: _80  and  _82
REMARK   32  A    between atoms: _82  and  _83
REMARK   33  A    between atoms: _82  and  _85
REMARK   34  A    between atoms: _85  and  _86
REMARK   35  A    between atoms: _91  and  _93
REMARK   36  A    between atoms: _93  and  _94
REMARK   37  A    between atoms: _93  and  _96
REMARK   38  A    between atoms: _98  and  _100
REMARK   39  A    between atoms: _100  and  _101
REMARK   40  A    between atoms: _100  and  _103
REMARK   41  A    between atoms: _103  and  _104
REMARK   42  A    between atoms: _109  and  _111
REMARK   43  A    between atoms: _111  and  _112
REMARK   44  A    between atoms: _111  and  _114
REMARK   45  A    between atoms: _114  and  _115
REMARK   46  A    between atoms: _115  and  _116
REMARK   47  A    between atoms: _116  and  _117
REMARK   48  A    between atoms: _126  and  _128
REMARK   49  A    between atoms: _128  and  _129
REMARK   50  A    between atoms: _128  and  _131
REMARK   51  A    between atoms: _131  and  _132
REMARK   52  A    between atoms: _137  and  _139
REMARK   53  A    between atoms: _139  and  _140
REMARK   54  A    between atoms: _139  and  _142
REMARK   55  A    between atoms: _142  and  _143
REMARK   56  A    between atoms: _143  and  _144
REMARK   57  A    between atoms: _147  and  _149
REMARK   58  A    between atoms: _149  and  _150
REMARK   59  A    between atoms: _149  and  _152
REMARK   60  A    between atoms: _152  and  _153
REMARK   61  A    between atoms: _155  and  _157
REMARK   62  A    between atoms: _157  and  _158
REMARK   63  A    between atoms: _157  and  _160
REMARK   64  A    between atoms: _160  and  _161
REMARK   65  A    between atoms: _164  and  _166
REMARK   66  A    between atoms: _166  and  _167
REMARK   67  A    between atoms: _166  and  _169
REMARK   68  A    between atoms: _169  and  _170
REMARK   69  A    between atoms: _175  and  _177
REMARK   70  A    between atoms: _177  and  _178
REMARK   71  A    between atoms: _180  and  _182
REMARK   72  A    between atoms: _182  and  _183
REMARK   73  A    between atoms: _182  and  _185
REMARK   74  A    between atoms: _185  and  _186
REMARK   75  A    between atoms: _189  and  _191
REMARK   76  A    between atoms: _191  and  _192
REMARK   77  A    between atoms: _191  and  _194
REMARK   78  A    between atoms: _194  and  _195
REMARK   79  A    between atoms: _195  and  _196
REMARK   80  A    between atoms: _198  and  _200
REMARK   81  A    between atoms: _200  and  _201
REMARK   82  A    between atoms: _200  and  _203
REMARK   83  A    between atoms: _203  and  _204
REMARK   84  A    between atoms: _204  and  _205
REMARK   85  A    between atoms: _205  and  _206
REMARK   86  A    between atoms: _215  and  _217
REMARK   87  A    between atoms: _217  and  _218
REMARK   88  A    between atoms: _217  and  _220
REMARK   89  A    between atoms: _223  and  _225
REMARK   90  A    between atoms: _225  and  _226
REMARK   91  A    between atoms: _225  and  _228
REMARK   92  A    between atoms: _228  and  _229
REMARK   93  A    between atoms: _229  and  _230
REMARK   94  A    between atoms: _230  and  _231
REMARK   95  A    between atoms: _240  and  _242
REMARK   96  A    between atoms: _242  and  _243
REMARK   97  A    between atoms: _245  and  _247
REMARK   98  A    between atoms: _247  and  _248
REMARK   99  A    between atoms: _247  and  _250
REMARK  100  A    between atoms: _250  and  _251
REMARK  101  A    between atoms: _257  and  _259
REMARK  102  A    between atoms: _259  and  _260
REMARK  103  A    between atoms: _259  and  _262
REMARK  104  A    between atoms: _262  and  _263
REMARK  105  A    between atoms: _266  and  _268
REMARK  106  A    between atoms: _268  and  _269
REMARK  107  A    between atoms: _268  and  _271
REMARK  108  A    between atoms: _271  and  _272
REMARK  109  A    between atoms: _272  and  _273
REMARK  110  A    between atoms: _278  and  _280
REMARK  111  A    between atoms: _280  and  _281
REMARK  112  A    between atoms: _280  and  _283
REMARK  113  A    between atoms: _283  and  _284
REMARK  114  A    between atoms: _287  and  _289
REMARK  115  A    between atoms: _289  and  _290
REMARK  116  A    between atoms: _289  and  _292
REMARK  117  A    between atoms: _292  and  _293
REMARK  118  A    between atoms: _296  and  _298
REMARK  119  A    between atoms: _298  and  _299
REMARK  120  A    between atoms: _302  and  _304
REMARK  121  A    between atoms: _304  and  _305
REMARK  122  A    between atoms: _304  and  _307
REMARK  123  A    between atoms: _307  and  _308
REMARK  124  A    between atoms: _312  and  ZN_650
REMARK  125  A    between atoms: _313  and  _315
REMARK  126  A    between atoms: _315  and  _316
REMARK  127  A    between atoms: _315  and  _318
REMARK  128  A    between atoms: _318  and  _319
REMARK  129  A    between atoms: _322  and  _324
REMARK  130  A    between atoms: _324  and  _325
REMARK  131  A    between atoms: _324  and  _327
REMARK  132  A    between atoms: _327  and  _328
REMARK  133  A    between atoms: _330  and  _332
REMARK  134  A    between atoms: _332  and  _333
REMARK  135  A    between atoms: _332  and  _335
REMARK  136  A    between atoms: _335  and  _336
REMARK  137  A    between atoms: _336  and  _337
REMARK  138  A    between atoms: _340  and  _342
REMARK  139  A    between atoms: _342  and  _343
REMARK  140  A    between atoms: _345  and  _347
REMARK  141  A    between atoms: _347  and  _348
REMARK  142  A    between atoms: _351  and  _353
REMARK  143  A    between atoms: _353  and  _354
REMARK  144  A    between atoms: _353  and  _356
REMARK  145  A    between atoms: _356  and  _357
REMARK  146  A    between atoms: _363  and  _365
REMARK  147  A    between atoms: _365  and  _366
REMARK  148  A    between atoms: _365  and  _368
REMARK  149  A    between atoms: _368  and  _369
REMARK  150  A    between atoms: _374  and  _375
REMARK  151  A    between atoms: _377  and  _379
REMARK  152  A    between atoms: _379  and  _380
REMARK  153  A    between atoms: _379  and  _382
REMARK  154  A    between atoms: _382  and  _383
REMARK  155  A    between atoms: _383  and  _384
REMARK  156  A    between atoms: _384  and  _385
REMARK  157  A    between atoms: _385  and  _386
REMARK  158  A    between atoms: _390  and  _392
REMARK  159  A    between atoms: _392  and  _393
REMARK  160  A    between atoms: _392  and  _395
REMARK  161  A    between atoms: _395  and  _396
REMARK  162  A    between atoms: _399  and  _401
REMARK  163  A    between atoms: _401  and  _402
REMARK  164  A    between atoms: _401  and  _404
REMARK  165  A    between atoms: _404  and  _405
REMARK  166  A    between atoms: _405  and  _406
REMARK  167  A    between atoms: _409  and  _411
REMARK  168  A    between atoms: _411  and  _412
REMARK  169  A    between atoms: _411  and  _414
REMARK  170  A    between atoms: _414  and  _415
REMARK  171  A    between atoms: _425  and  _427
REMARK  172  A    between atoms: _427  and  _428
REMARK  173  A    between atoms: _427  and  _430
REMARK  174  A    between atoms: _430  and  _431
REMARK  175  A    between atoms: _431  and  _432
REMARK  176  A    between atoms: _437  and  _439
REMARK  177  A    between atoms: _439  and  _440
REMARK  178  A    between atoms: _439  and  _442
REMARK  179  A    between atoms: _444  and  _446
REMARK  180  A    between atoms: _446  and  _447
REMARK  181  A    between atoms: _449  and  _451
REMARK  182  A    between atoms: _451  and  _452
REMARK  183  A    between atoms: _451  and  _454
REMARK  184  A    between atoms: _454  and  _455
REMARK  185  A    between atoms: _458  and  _460
REMARK  186  A    between atoms: _460  and  _461
REMARK  187  A    between atoms: _460  and  _463
REMARK  188  A    between atoms: _466  and  _468
REMARK  189  A    between atoms: _468  and  _469
REMARK  190  A    between atoms: _468  and  _471
REMARK  191  A    between atoms: _471  and  _472
REMARK  192  A    between atoms: _472  and  _473
REMARK  193  A    between atoms: _478  and  _480
REMARK  194  A    between atoms: _480  and  _481
REMARK  195  A    between atoms: _480  and  _483
REMARK  196  A    between atoms: _483  and  _484
REMARK  197  A    between atoms: _487  and  _489
REMARK  198  A    between atoms: _489  and  _490
REMARK  199  A    between atoms: _489  and  _492
REMARK  200  A    between atoms: _492  and  _493
REMARK  201  A    between atoms: _496  and  _498
REMARK  202  A    between atoms: _498  and  _499
REMARK  203  A    between atoms: _498  and  _501
REMARK  204  A    between atoms: _501  and  _502
REMARK  205  A    between atoms: _502  and  _503
REMARK  206  A    between atoms: _505  and  _507
REMARK  207  A    between atoms: _507  and  _508
REMARK  208  A    between atoms: _507  and  _510
REMARK  209  A    between atoms: _510  and  _511
REMARK  210  A    between atoms: _514  and  _516
REMARK  211  A    between atoms: _516  and  _517
REMARK  212  A    between atoms: _516  and  _519
REMARK  213  A    between atoms: _519  and  _520
REMARK  214  A    between atoms: _521  and  ZN_650
REMARK  215  A    between atoms: _525  and  _527
REMARK  216  A    between atoms: _527  and  _528
REMARK  217  A    between atoms: _527  and  _530
REMARK  218  A    between atoms: _530  and  _531
REMARK  219  A    between atoms: _531  and  _532
REMARK  220  A    between atoms: _532  and  _533
REMARK  221  A    between atoms: _542  and  _544
REMARK  222  A    between atoms: _544  and  _545
REMARK  223  A    between atoms: _548  and  _550
REMARK  224  A    between atoms: _550  and  _551
REMARK  225  A    between atoms: _550  and  _553
REMARK  226  A    between atoms: _553  and  _554
REMARK  227  A    between atoms: _557  and  _559
REMARK  228  A    between atoms: _559  and  _560
REMARK  229  A    between atoms: _559  and  _562
REMARK  230  A    between atoms: _562  and  _563
REMARK  231  A    between atoms: _566  and  _568
REMARK  232  A    between atoms: _568  and  _569
REMARK  233  A    between atoms: _571  and  _573
REMARK  234  A    between atoms: _573  and  _574
REMARK  235  A    between atoms: _573  and  _576
REMARK  236  A    between atoms: _576  and  _577
REMARK  237  A    between atoms: _579  and  _581
REMARK  238  A    between atoms: _581  and  _582
REMARK  239  A    between atoms: _581  and  _584
REMARK  240  A    between atoms: _584  and  _585
REMARK  241  A    between atoms: _585  and  _586
REMARK  242  A    between atoms: _588  and  _590
REMARK  243  A    between atoms: _590  and  _591
REMARK  244  A    between atoms: _590  and  _593
REMARK  245  A    between atoms: _593  and  _594
REMARK  246  A    between atoms: _594  and  _595
REMARK  247  A    between atoms: _598  and  _600
REMARK  248  A    between atoms: _600  and  _601
REMARK  249  A    between atoms: _600  and  _603
REMARK  250  A    between atoms: _603  and  _604
REMARK  251  A    between atoms: _604  and  _605
REMARK  252  A    between atoms: _605  and  _606
REMARK  253  A    between atoms: _615  and  _617
REMARK  254  A    between atoms: _617  and  _618
REMARK  255  A    between atoms: _617  and  _620
REMARK  256  A    between atoms: _620  and  _621
REMARK  257  A    between atoms: _627  and  _629
REMARK  258  A    between atoms: _629  and  _630
REMARK  259  A    between atoms: _629  and  _632
REMARK  260  A    between atoms: _632  and  _633
REMARK  261  A    between atoms: _636  and  _638
REMARK  262  A    between atoms: _638  and  _639
REMARK  263  A    between atoms: _641  and  _643
REMARK  264  A    between atoms: _643  and  _644
REMARK  265  A    between atoms: _643  and  _646
REMARK  266  A    between atoms: _646  and  _647
REMARK                            x       y       z     vdW  Elec       q    Type
REMARK                         _______ _______ _______ _____ _____    ______ ____
ROOT
ATOM      1  O   HOH     1      18.882 -38.884  -8.141  0.00  0.00    +0.000 OA
ENDROOT
TORSDOF 0
REMARK  Name = ../refined-set-2016/4hws/4hws_pocket.pdb
REMARK  266 active torsions:
REMARK  status: ('A' for Active; 'I' for Inactive)
REMARK    1  A    between atoms: _1  and  _3
REMARK    2  A    between atoms: _3  and  _4
REMARK    3  A    between atoms: _6  and  _8
REMARK    4  A    between atoms: _8  and  _9
REMARK    5  A    between atoms: _8  and  _11
REMARK    6  A    between atoms: _14  and  _16
REMARK    7  A    between atoms: _16  and  _17
REMARK    8  A    between atoms: _16  and  _19
REMARK    9  A    between atoms: _19  and  _20
REMARK   10  A    between atoms: _25  and  _27
REMARK   11  A    between atoms: _27  and  _28
REMARK   12  A    between atoms: _27  and  _30
REMARK   13  A    between atoms: _30  and  _31
REMARK   14  A    between atoms: _36  and  _37
REMARK   15  A    between atoms: _40  and  _41
REMARK   16  A    between atoms: _46  and  _48
REMARK   17  A    between atoms: _48  and  _49
REMARK   18  A    between atoms: _48  and  _51
REMARK   19  A    between atoms: _51  and  _52
REMARK   20  A    between atoms: _52  and  _53
REMARK   21  A    between atoms: _55  and  _57
REMARK   22  A    between atoms: _57  and  _58
REMARK   23  A    between atoms: _57  and  _60
REMARK   24  A    between atoms: _60  and  _61
REMARK   25  A    between atoms: _66  and  _68
REMARK   26  A    between atoms: _68  and  _69
REMARK   27  A    between atoms: _68  and  _71
REMARK   28  A    between atoms: _71  and  _72
REMARK   29  A    between atoms: _72  and  ZN_650
REMARK   30  A    between atoms: _74  and  _75
REMARK   31  A    between atoms: _80  and  _82
REMARK   32  A    between atoms: _82  and  _83
REMARK   33  A    between atoms: _82  and  _85
REMARK   34  A    between atoms: _85  and  _86
REMARK   35  A    between atoms: _91  and  _93
REMARK   36  A    between atoms: _93  and  _94
REMARK   37  A    between atoms: _93  and  _96
REMARK   38  A    between atoms: _98  and  _100
REMARK   39  A    between atoms: _100  and  _101
REMARK   40  A    between atoms: _100  and  _103
REMARK   41  A    between atoms: _103  and  _104
REMARK   42  A    between atoms: _109  and  _111
REMARK   43  A    between atoms: _111  and  _112
REMARK   44  A    between atoms: _111  and  _114
REMARK   45  A    between atoms: _114  and  _115
REMARK   46  A    between atoms: _115  and  _116
REMARK   47  A    between atoms: _116  and  _117
REMARK   48  A    between atoms: _126  and  _128
REMARK   49  A    between atoms: _128  and  _129
REMARK   50  A    between atoms: _128  and  _131
REMARK   51  A    between atoms: _131  and  _132
REMARK   52  A    between atoms: _137  and  _139
REMARK   53  A    between atoms: _139  and  _140
REMARK   54  A    between atoms: _139  and  _142
REMARK   55  A    between atoms: _142  and  _143
REMARK   56  A    between atoms: _143  and  _144
REMARK   57  A    between atoms: _147  and  _149
REMARK   58  A    between atoms: _149  and  _150
REMARK   59  A    between atoms: _149  and  _152
REMARK   60  A    between atoms: _152  and  _153
REMARK   61  A    between atoms: _155  and  _157
REMARK   62  A    between atoms: _157  and  _158
REMARK   63  A    between atoms: _157  and  _160
REMARK   64  A    between atoms: _160  and  _161
REMARK   65  A    between atoms: _164  and  _166
REMARK   66  A    between atoms: _166  and  _167
REMARK   67  A    between atoms: _166  and  _169
REMARK   68  A    between atoms: _169  and  _170
REMARK   69  A    between atoms: _175  and  _177
REMARK   70  A    between atoms: _177  and  _178
REMARK   71  A    between atoms: _180  and  _182
REMARK   72  A    between atoms: _182  and  _183
REMARK   73  A    between atoms: _182  and  _185
REMARK   74  A    between atoms: _185  and  _186
REMARK   75  A    between atoms: _189  and  _191
REMARK   76  A    between atoms: _191  and  _192
REMARK   77  A    between atoms: _191  and  _194
REMARK   78  A    between atoms: _194  and  _195
REMARK   79  A    between atoms: _195  and  _196
REMARK   80  A    between atoms: _198  and  _200
REMARK   81  A    between atoms: _200  and  _201
REMARK   82  A    between atoms: _200  and  _203
REMARK   83  A    between atoms: _203  and  _204
REMARK   84  A    between atoms: _204  and  _205
REMARK   85  A    between atoms: _205  and  _206
REMARK   86  A    between atoms: _215  and  _217
REMARK   87  A    between atoms: _217  and  _218
REMARK   88  A    between atoms: _217  and  _220
REMARK   89  A    between atoms: _223  and  _225
REMARK   90  A    between atoms: _225  and  _226
REMARK   91  A    between atoms: _225  and  _228
REMARK   92  A    between atoms: _228  and  _229
REMARK   93  A    between atoms: _229  and  _230
REMARK   94  A    between atoms: _230  and  _231
REMARK   95  A    between atoms: _240  and  _242
REMARK   96  A    between atoms: _242  and  _243
REMARK   97  A    between atoms: _245  and  _247
REMARK   98  A    between atoms: _247  and  _248
REMARK   99  A    between atoms: _247  and  _250
REMARK  100  A    between atoms: _250  and  _251
REMARK  101  A    between atoms: _257  and  _259
REMARK  102  A    between atoms: _259  and  _260
REMARK  103  A    between atoms: _259  and  _262
REMARK  104  A    between atoms: _262  and  _263
REMARK  105  A    between atoms: _266  and  _268
REMARK  106  A    between atoms: _268  and  _269
REMARK  107  A    between atoms: _268  and  _271
REMARK  108  A    between atoms: _271  and  _272
REMARK  109  A    between atoms: _272  and  _273
REMARK  110  A    between atoms: _278  and  _280
REMARK  111  A    between atoms: _280  and  _281
REMARK  112  A    between atoms: _280  and  _283
REMARK  113  A    between atoms: _283  and  _284
REMARK  114  A    between atoms: _287  and  _289
REMARK  115  A    between atoms: _289  and  _290
REMARK  116  A    between atoms: _289  and  _292
REMARK  117  A    between atoms: _292  and  _293
REMARK  118  A    between atoms: _296  and  _298
REMARK  119  A    between atoms: _298  and  _299
REMARK  120  A    between atoms: _302  and  _304
REMARK  121  A    between atoms: _304  and  _305
REMARK  122  A    between atoms: _304  and  _307
REMARK  123  A    between atoms: _307  and  _308
REMARK  124  A    between atoms: _312  and  ZN_650
REMARK  125  A    between atoms: _313  and  _315
REMARK  126  A    between atoms: _315  and  _316
REMARK  127  A    between atoms: _315  and  _318
REMARK  128  A    between atoms: _318  and  _319
REMARK  129  A    between atoms: _322  and  _324
REMARK  130  A    between atoms: _324  and  _325
REMARK  131  A    between atoms: _324  and  _327
REMARK  132  A    between atoms: _327  and  _328
REMARK  133  A    between atoms: _330  and  _332
REMARK  134  A    between atoms: _332  and  _333
REMARK  135  A    between atoms: _332  and  _335
REMARK  136  A    between atoms: _335  and  _336
REMARK  137  A    between atoms: _336  and  _337
REMARK  138  A    between atoms: _340  and  _342
REMARK  139  A    between atoms: _342  and  _343
REMARK  140  A    between atoms: _345  and  _347
REMARK  141  A    between atoms: _347  and  _348
REMARK  142  A    between atoms: _351  and  _353
REMARK  143  A    between atoms: _353  and  _354
REMARK  144  A    between atoms: _353  and  _356
REMARK  145  A    between atoms: _356  and  _357
REMARK  146  A    between atoms: _363  and  _365
REMARK  147  A    between atoms: _365  and  _366
REMARK  148  A    between atoms: _365  and  _368
REMARK  149  A    between atoms: _368  and  _369
REMARK  150  A    between atoms: _374  and  _375
REMARK  151  A    between atoms: _377  and  _379
REMARK  152  A    between atoms: _379  and  _380
REMARK  153  A    between atoms: _379  and  _382
REMARK  154  A    between atoms: _382  and  _383
REMARK  155  A    between atoms: _383  and  _384
REMARK  156  A    between atoms: _384  and  _385
REMARK  157  A    between atoms: _385  and  _386
REMARK  158  A    between atoms: _390  and  _392
REMARK  159  A    between atoms: _392  and  _393
REMARK  160  A    between atoms: _392  and  _395
REMARK  161  A    between atoms: _395  and  _396
REMARK  162  A    between atoms: _399  and  _401
REMARK  163  A    between atoms: _401  and  _402
REMARK  164  A    between atoms: _401  and  _404
REMARK  165  A    between atoms: _404  and  _405
REMARK  166  A    between atoms: _405  and  _406
REMARK  167  A    between atoms: _409  and  _411
REMARK  168  A    between atoms: _411  and  _412
REMARK  169  A    between atoms: _411  and  _414
REMARK  170  A    between atoms: _414  and  _415
REMARK  171  A    between atoms: _425  and  _427
REMARK  172  A    between atoms: _427  and  _428
REMARK  173  A    between atoms: _427  and  _430
REMARK  174  A    between atoms: _430  and  _431
REMARK  175  A    between atoms: _431  and  _432
REMARK  176  A    between atoms: _437  and  _439
REMARK  177  A    between atoms: _439  and  _440
REMARK  178  A    between atoms: _439  and  _442
REMARK  179  A    between atoms: _444  and  _446
REMARK  180  A    between atoms: _446  and  _447
REMARK  181  A    between atoms: _449  and  _451
REMARK  182  A    between atoms: _451  and  _452
REMARK  183  A    between atoms: _451  and  _454
REMARK  184  A    between atoms: _454  and  _455
REMARK  185  A    between atoms: _458  and  _460
REMARK  186  A    between atoms: _460  and  _461
REMARK  187  A    between atoms: _460  and  _463
REMARK  188  A    between atoms: _466  and  _468
REMARK  189  A    between atoms: _468  and  _469
REMARK  190  A    between atoms: _468  and  _471
REMARK  191  A    between atoms: _471  and  _472
REMARK  192  A    between atoms: _472  and  _473
REMARK  193  A    between atoms: _478  and  _480
REMARK  194  A    between atoms: _480  and  _481
REMARK  195  A    between atoms: _480  and  _483
REMARK  196  A    between atoms: _483  and  _484
REMARK  197  A    between atoms: _487  and  _489
REMARK  198  A    between atoms: _489  and  _490
REMARK  199  A    between atoms: _489  and  _492
REMARK  200  A    between atoms: _492  and  _493
REMARK  201  A    between atoms: _496  and  _498
REMARK  202  A    between atoms: _498  and  _499
REMARK  203  A    between atoms: _498  and  _501
REMARK  204  A    between atoms: _501  and  _502
REMARK  205  A    between atoms: _502  and  _503
REMARK  206  A    between atoms: _505  and  _507
REMARK  207  A    between atoms: _507  and  _508
REMARK  208  A    between atoms: _507  and  _510
REMARK  209  A    between atoms: _510  and  _511
REMARK  210  A    between atoms: _514  and  _516
REMARK  211  A    between atoms: _516  and  _517
REMARK  212  A    between atoms: _516  and  _519
REMARK  213  A    between atoms: _519  and  _520
REMARK  214  A    between atoms: _521  and  ZN_650
REMARK  215  A    between atoms: _525  and  _527
REMARK  216  A    between atoms: _527  and  _528
REMARK  217  A    between atoms: _527  and  _530
REMARK  218  A    between atoms: _530  and  _531
REMARK  219  A    between atoms: _531  and  _532
REMARK  220  A    between atoms: _532  and  _533
REMARK  221  A    between atoms: _542  and  _544
REMARK  222  A    between atoms: _544  and  _545
REMARK  223  A    between atoms: _548  and  _550
REMARK  224  A    between atoms: _550  and  _551
REMARK  225  A    between atoms: _550  and  _553
REMARK  226  A    between atoms: _553  and  _554
REMARK  227  A    between atoms: _557  and  _559
REMARK  228  A    between atoms: _559  and  _560
REMARK  229  A    between atoms: _559  and  _562
REMARK  230  A    between atoms: _562  and  _563
REMARK  231  A    between atoms: _566  and  _568
REMARK  232  A    between atoms: _568  and  _569
REMARK  233  A    between atoms: _571  and  _573
REMARK  234  A    between atoms: _573  and  _574
REMARK  235  A    between atoms: _573  and  _576
REMARK  236  A    between atoms: _576  and  _577
REMARK  237  A    between atoms: _579  and  _581
REMARK  238  A    between atoms: _581  and  _582
REMARK  239  A    between atoms: _581  and  _584
REMARK  240  A    between atoms: _584  and  _585
REMARK  241  A    between atoms: _585  and  _586
REMARK  242  A    between atoms: _588  and  _590
REMARK  243  A    between atoms: _590  and  _591
REMARK  244  A    between atoms: _590  and  _593
REMARK  245  A    between atoms: _593  and  _594
REMARK  246  A    between atoms: _594  and  _595
REMARK  247  A    between atoms: _598  and  _600
REMARK  248  A    between atoms: _600  and  _601
REMARK  249  A    between atoms: _600  and  _603
REMARK  250  A    between atoms: _603  and  _604
REMARK  251  A    between atoms: _604  and  _605
REMARK  252  A    between atoms: _605  and  _606
REMARK  253  A    between atoms: _615  and  _617
REMARK  254  A    between atoms: _617  and  _618
REMARK  255  A    between atoms: _617  and  _620
REMARK  256  A    between atoms: _620  and  _621
REMARK  257  A    between atoms: _627  and  _629
REMARK  258  A    between atoms: _629  and  _630
REMARK  259  A    between atoms: _629  and  _632
REMARK  260  A    between atoms: _632  and  _633
REMARK  261  A    between atoms: _636  and  _638
REMARK  262  A    between atoms: _638  and  _639
REMARK  263  A    between atoms: _641  and  _643
REMARK  264  A    between atoms: _643  and  _644
REMARK  265  A    between atoms: _643  and  _646
REMARK  266  A    between atoms: _646  and  _647
REMARK                            x       y       z     vdW  Elec       q    Type
REMARK                         _______ _______ _______ _____ _____    ______ ____
ROOT
ATOM      1  O   HOH     1      16.786 -42.391 -13.179  0.00  0.00    +0.000 OA
ENDROOT
TORSDOF 0
REMARK  Name = ../refined-set-2016/4hws/4hws_pocket.pdb
REMARK  266 active torsions:
REMARK  status: ('A' for Active; 'I' for Inactive)
REMARK    1  A    between atoms: _1  and  _3
REMARK    2  A    between atoms: _3  and  _4
REMARK    3  A    between atoms: _6  and  _8
REMARK    4  A    between atoms: _8  and  _9
REMARK    5  A    between atoms: _8  and  _11
REMARK    6  A    between atoms: _14  and  _16
REMARK    7  A    between atoms: _16  and  _17
REMARK    8  A    between atoms: _16  and  _19
REMARK    9  A    between atoms: _19  and  _20
REMARK   10  A    between atoms: _25  and  _27
REMARK   11  A    between atoms: _27  and  _28
REMARK   12  A    between atoms: _27  and  _30
REMARK   13  A    between atoms: _30  and  _31
REMARK   14  A    between atoms: _36  and  _37
REMARK   15  A    between atoms: _40  and  _41
REMARK   16  A    between atoms: _46  and  _48
REMARK   17  A    between atoms: _48  and  _49
REMARK   18  A    between atoms: _48  and  _51
REMARK   19  A    between atoms: _51  and  _52
REMARK   20  A    between atoms: _52  and  _53
REMARK   21  A    between atoms: _55  and  _57
REMARK   22  A    between atoms: _57  and  _58
REMARK   23  A    between atoms: _57  and  _60
REMARK   24  A    between atoms: _60  and  _61
REMARK   25  A    between atoms: _66  and  _68
REMARK   26  A    between atoms: _68  and  _69
REMARK   27  A    between atoms: _68  and  _71
REMARK   28  A    between atoms: _71  and  _72
REMARK   29  A    between atoms: _72  and  ZN_650
REMARK   30  A    between atoms: _74  and  _75
REMARK   31  A    between atoms: _80  and  _82
REMARK   32  A    between atoms: _82  and  _83
REMARK   33  A    between atoms: _82  and  _85
REMARK   34  A    between atoms: _85  and  _86
REMARK   35  A    between atoms: _91  and  _93
REMARK   36  A    between atoms: _93  and  _94
REMARK   37  A    between atoms: _93  and  _96
REMARK   38  A    between atoms: _98  and  _100
REMARK   39  A    between atoms: _100  and  _101
REMARK   40  A    between atoms: _100  and  _103
REMARK   41  A    between atoms: _103  and  _104
REMARK   42  A    between atoms: _109  and  _111
REMARK   43  A    between atoms: _111  and  _112
REMARK   44  A    between atoms: _111  and  _114
REMARK   45  A    between atoms: _114  and  _115
REMARK   46  A    between atoms: _115  and  _116
REMARK   47  A    between atoms: _116  and  _117
REMARK   48  A    between atoms: _126  and  _128
REMARK   49  A    between atoms: _128  and  _129
REMARK   50  A    between atoms: _128  and  _131
REMARK   51  A    between atoms: _131  and  _132
REMARK   52  A    between atoms: _137  and  _139
REMARK   53  A    between atoms: _139  and  _140
REMARK   54  A    between atoms: _139  and  _142
REMARK   55  A    between atoms: _142  and  _143
REMARK   56  A    between atoms: _143  and  _144
REMARK   57  A    between atoms: _147  and  _149
REMARK   58  A    between atoms: _149  and  _150
REMARK   59  A    between atoms: _149  and  _152
REMARK   60  A    between atoms: _152  and  _153
REMARK   61  A    between atoms: _155  and  _157
REMARK   62  A    between atoms: _157  and  _158
REMARK   63  A    between atoms: _157  and  _160
REMARK   64  A    between atoms: _160  and  _161
REMARK   65  A    between atoms: _164  and  _166
REMARK   66  A    between atoms: _166  and  _167
REMARK   67  A    between atoms: _166  and  _169
REMARK   68  A    between atoms: _169  and  _170
REMARK   69  A    between atoms: _175  and  _177
REMARK   70  A    between atoms: _177  and  _178
REMARK   71  A    between atoms: _180  and  _182
REMARK   72  A    between atoms: _182  and  _183
REMARK   73  A    between atoms: _182  and  _185
REMARK   74  A    between atoms: _185  and  _186
REMARK   75  A    between atoms: _189  and  _191
REMARK   76  A    between atoms: _191  and  _192
REMARK   77  A    between atoms: _191  and  _194
REMARK   78  A    between atoms: _194  and  _195
REMARK   79  A    between atoms: _195  and  _196
REMARK   80  A    between atoms: _198  and  _200
REMARK   81  A    between atoms: _200  and  _201
REMARK   82  A    between atoms: _200  and  _203
REMARK   83  A    between atoms: _203  and  _204
REMARK   84  A    between atoms: _204  and  _205
REMARK   85  A    between atoms: _205  and  _206
REMARK   86  A    between atoms: _215  and  _217
REMARK   87  A    between atoms: _217  and  _218
REMARK   88  A    between atoms: _217  and  _220
REMARK   89  A    between atoms: _223  and  _225
REMARK   90  A    between atoms: _225  and  _226
REMARK   91  A    between atoms: _225  and  _228
REMARK   92  A    between atoms: _228  and  _229
REMARK   93  A    between atoms: _229  and  _230
REMARK   94  A    between atoms: _230  and  _231
REMARK   95  A    between atoms: _240  and  _242
REMARK   96  A    between atoms: _242  and  _243
REMARK   97  A    between atoms: _245  and  _247
REMARK   98  A    between atoms: _247  and  _248
REMARK   99  A    between atoms: _247  and  _250
REMARK  100  A    between atoms: _250  and  _251
REMARK  101  A    between atoms: _257  and  _259
REMARK  102  A    between atoms: _259  and  _260
REMARK  103  A    between atoms: _259  and  _262
REMARK  104  A    between atoms: _262  and  _263
REMARK  105  A    between atoms: _266  and  _268
REMARK  106  A    between atoms: _268  and  _269
REMARK  107  A    between atoms: _268  and  _271
REMARK  108  A    between atoms: _271  and  _272
REMARK  109  A    between atoms: _272  and  _273
REMARK  110  A    between atoms: _278  and  _280
REMARK  111  A    between atoms: _280  and  _281
REMARK  112  A    between atoms: _280  and  _283
REMARK  113  A    between atoms: _283  and  _284
REMARK  114  A    between atoms: _287  and  _289
REMARK  115  A    between atoms: _289  and  _290
REMARK  116  A    between atoms: _289  and  _292
REMARK  117  A    between atoms: _292  and  _293
REMARK  118  A    between atoms: _296  and  _298
REMARK  119  A    between atoms: _298  and  _299
REMARK  120  A    between atoms: _302  and  _304
REMARK  121  A    between atoms: _304  and  _305
REMARK  122  A    between atoms: _304  and  _307
REMARK  123  A    between atoms: _307  and  _308
REMARK  124  A    between atoms: _312  and  ZN_650
REMARK  125  A    between atoms: _313  and  _315
REMARK  126  A    between atoms: _315  and  _316
REMARK  127  A    between atoms: _315  and  _318
REMARK  128  A    between atoms: _318  and  _319
REMARK  129  A    between atoms: _322  and  _324
REMARK  130  A    between atoms: _324  and  _325
REMARK  131  A    between atoms: _324  and  _327
REMARK  132  A    between atoms: _327  and  _328
REMARK  133  A    between atoms: _330  and  _332
REMARK  134  A    between atoms: _332  and  _333
REMARK  135  A    between atoms: _332  and  _335
REMARK  136  A    between atoms: _335  and  _336
REMARK  137  A    between atoms: _336  and  _337
REMARK  138  A    between atoms: _340  and  _342
REMARK  139  A    between atoms: _342  and  _343
REMARK  140  A    between atoms: _345  and  _347
REMARK  141  A    between atoms: _347  and  _348
REMARK  142  A    between atoms: _351  and  _353
REMARK  143  A    between atoms: _353  and  _354
REMARK  144  A    between atoms: _353  and  _356
REMARK  145  A    between atoms: _356  and  _357
REMARK  146  A    between atoms: _363  and  _365
REMARK  147  A    between atoms: _365  and  _366
REMARK  148  A    between atoms: _365  and  _368
REMARK  149  A    between atoms: _368  and  _369
REMARK  150  A    between atoms: _374  and  _375
REMARK  151  A    between atoms: _377  and  _379
REMARK  152  A    between atoms: _379  and  _380
REMARK  153  A    between atoms: _379  and  _382
REMARK  154  A    between atoms: _382  and  _383
REMARK  155  A    between atoms: _383  and  _384
REMARK  156  A    between atoms: _384  and  _385
REMARK  157  A    between atoms: _385  and  _386
REMARK  158  A    between atoms: _390  and  _392
REMARK  159  A    between atoms: _392  and  _393
REMARK  160  A    between atoms: _392  and  _395
REMARK  161  A    between atoms: _395  and  _396
REMARK  162  A    between atoms: _399  and  _401
REMARK  163  A    between atoms: _401  and  _402
REMARK  164  A    between atoms: _401  and  _404
REMARK  165  A    between atoms: _404  and  _405
REMARK  166  A    between atoms: _405  and  _406
REMARK  167  A    between atoms: _409  and  _411
REMARK  168  A    between atoms: _411  and  _412
REMARK  169  A    between atoms: _411  and  _414
REMARK  170  A    between atoms: _414  and  _415
REMARK  171  A    between atoms: _425  and  _427
REMARK  172  A    between atoms: _427  and  _428
REMARK  173  A    between atoms: _427  and  _430
REMARK  174  A    between atoms: _430  and  _431
REMARK  175  A    between atoms: _431  and  _432
REMARK  176  A    between atoms: _437  and  _439
REMARK  177  A    between atoms: _439  and  _440
REMARK  178  A    between atoms: _439  and  _442
REMARK  179  A    between atoms: _444  and  _446
REMARK  180  A    between atoms: _446  and  _447
REMARK  181  A    between atoms: _449  and  _451
REMARK  182  A    between atoms: _451  and  _452
REMARK  183  A    between atoms: _451  and  _454
REMARK  184  A    between atoms: _454  and  _455
REMARK  185  A    between atoms: _458  and  _460
REMARK  186  A    between atoms: _460  and  _461
REMARK  187  A    between atoms: _460  and  _463
REMARK  188  A    between atoms: _466  and  _468
REMARK  189  A    between atoms: _468  and  _469
REMARK  190  A    between atoms: _468  and  _471
REMARK  191  A    between atoms: _471  and  _472
REMARK  192  A    between atoms: _472  and  _473
REMARK  193  A    between atoms: _478  and  _480
REMARK  194  A    between atoms: _480  and  _481
REMARK  195  A    between atoms: _480  and  _483
REMARK  196  A    between atoms: _483  and  _484
REMARK  197  A    between atoms: _487  and  _489
REMARK  198  A    between atoms: _489  and  _490
REMARK  199  A    between atoms: _489  and  _492
REMARK  200  A    between atoms: _492  and  _493
REMARK  201  A    between atoms: _496  and  _498
REMARK  202  A    between atoms: _498  and  _499
REMARK  203  A    between atoms: _498  and  _501
REMARK  204  A    between atoms: _501  and  _502
REMARK  205  A    between atoms: _502  and  _503
REMARK  206  A    between atoms: _505  and  _507
REMARK  207  A    between atoms: _507  and  _508
REMARK  208  A    between atoms: _507  and  _510
REMARK  209  A    between atoms: _510  and  _511
REMARK  210  A    between atoms: _514  and  _516
REMARK  211  A    between atoms: _516  and  _517
REMARK  212  A    between atoms: _516  and  _519
REMARK  213  A    between atoms: _519  and  _520
REMARK  214  A    between atoms: _521  and  ZN_650
REMARK  215  A    between atoms: _525  and  _527
REMARK  216  A    between atoms: _527  and  _528
REMARK  217  A    between atoms: _527  and  _530
REMARK  218  A    between atoms: _530  and  _531
REMARK  219  A    between atoms: _531  and  _532
REMARK  220  A    between atoms: _532  and  _533
REMARK  221  A    between atoms: _542  and  _544
REMARK  222  A    between atoms: _544  and  _545
REMARK  223  A    between atoms: _548  and  _550
REMARK  224  A    between atoms: _550  and  _551
REMARK  225  A    between atoms: _550  and  _553
REMARK  226  A    between atoms: _553  and  _554
REMARK  227  A    between atoms: _557  and  _559
REMARK  228  A    between atoms: _559  and  _560
REMARK  229  A    between atoms: _559  and  _562
REMARK  230  A    between atoms: _562  and  _563
REMARK  231  A    between atoms: _566  and  _568
REMARK  232  A    between atoms: _568  and  _569
REMARK  233  A    between atoms: _571  and  _573
REMARK  234  A    between atoms: _573  and  _574
REMARK  235  A    between atoms: _573  and  _576
REMARK  236  A    between atoms: _576  and  _577
REMARK  237  A    between atoms: _579  and  _581
REMARK  238  A    between atoms: _581  and  _582
REMARK  239  A    between atoms: _581  and  _584
REMARK  240  A    between atoms: _584  and  _585
REMARK  241  A    between atoms: _585  and  _586
REMARK  242  A    between atoms: _588  and  _590
REMARK  243  A    between atoms: _590  and  _591
REMARK  244  A    between atoms: _590  and  _593
REMARK  245  A    between atoms: _593  and  _594
REMARK  246  A    between atoms: _594  and  _595
REMARK  247  A    between atoms: _598  and  _600
REMARK  248  A    between atoms: _600  and  _601
REMARK  249  A    between atoms: _600  and  _603
REMARK  250  A    between atoms: _603  and  _604
REMARK  251  A    between atoms: _604  and  _605
REMARK  252  A    between atoms: _605  and  _606
REMARK  253  A    between atoms: _615  and  _617
REMARK  254  A    between atoms: _617  and  _618
REMARK  255  A    between atoms: _617  and  _620
REMARK  256  A    between atoms: _620  and  _621
REMARK  257  A    between atoms: _627  and  _629
REMARK  258  A    between atoms: _629  and  _630
REMARK  259  A    between atoms: _629  and  _632
REMARK  260  A    between atoms: _632  and  _633
REMARK  261  A    between atoms: _636  and  _638
REMARK  262  A    between atoms: _638  and  _639
REMARK  263  A    between atoms: _641  and  _643
REMARK  264  A    between atoms: _643  and  _644
REMARK  265  A    between atoms: _643  and  _646
REMARK  266  A    between atoms: _646  and  _647
REMARK                            x       y       z     vdW  Elec       q    Type
REMARK                         _______ _______ _______ _____ _____    ______ ____
ROOT
ATOM      1  O   HOH     1      13.705 -44.831 -14.995  0.00  0.00    +0.000 OA
ENDROOT
TORSDOF 0
