REMARK  Name = ../refined-set-2016/4u73/4u73_pocket.pdb
REMARK  169 active torsions:
REMARK  status: ('A' for Active; 'I' for Inactive)
REMARK    1  A    between atoms: _1  and  _3
REMARK    2  A    between atoms: _3  and  _4
REMARK    3  A    between atoms: _3  and  _6
REMARK    4  A    between atoms: _6  and  _7
REMARK    5  A    between atoms: _12  and  _13
REMARK    6  A    between atoms: _16  and  _17
REMARK    7  A    between atoms: _22  and  _24
REMARK    8  A    between atoms: _24  and  _25
REMARK    9  A    between atoms: _24  and  _27
REMARK   10  A    between atoms: _27  and  _28
REMARK   11  A    between atoms: _31  and  _32
REMARK   12  A    between atoms: _37  and  _39
REMARK   13  A    between atoms: _39  and  _40
REMARK   14  A    between atoms: _39  and  _42
REMARK   15  A    between atoms: _42  and  _43
REMARK   16  A    between atoms: _46  and  _48
REMARK   17  A    between atoms: _48  and  _49
REMARK   18  A    between atoms: _48  and  _51
REMARK   19  A    between atoms: _51  and  _52
REMARK   20  A    between atoms: _57  and  _59
REMARK   21  A    between atoms: _59  and  _60
REMARK   22  A    between atoms: _59  and  _62
REMARK   23  A    between atoms: _62  and  _63
REMARK   24  A    between atoms: _68  and  _69
REMARK   25  A    between atoms: _71  and  _73
REMARK   26  A    between atoms: _73  and  _74
REMARK   27  A    between atoms: _73  and  _76
REMARK   28  A    between atoms: _76  and  _77
REMARK   29  A    between atoms: _82  and  _83
REMARK   30  A    between atoms: _85  and  _87
REMARK   31  A    between atoms: _87  and  _88
REMARK   32  A    between atoms: _87  and  _90
REMARK   33  A    between atoms: _90  and  _91
REMARK   34  A    between atoms: _97  and  _99
REMARK   35  A    between atoms: _99  and  _100
REMARK   36  A    between atoms: _99  and  _102
REMARK   37  A    between atoms: _102  and  _103
REMARK   38  A    between atoms: _103  and  _104
REMARK   39  A    between atoms: _104  and  _105
REMARK   40  A    between atoms: _105  and  _106
REMARK   41  A    between atoms: _110  and  _112
REMARK   42  A    between atoms: _112  and  _113
REMARK   43  A    between atoms: _112  and  _115
REMARK   44  A    between atoms: _115  and  _116
REMARK   45  A    between atoms: _118  and  _120
REMARK   46  A    between atoms: _120  and  _121
REMARK   47  A    between atoms: _120  and  _123
REMARK   48  A    between atoms: _125  and  _127
REMARK   49  A    between atoms: _127  and  _128
REMARK   50  A    between atoms: _127  and  _130
REMARK   51  A    between atoms: _132  and  _134
REMARK   52  A    between atoms: _134  and  _135
REMARK   53  A    between atoms: _134  and  _137
REMARK   54  A    between atoms: _139  and  _141
REMARK   55  A    between atoms: _141  and  _142
REMARK   56  A    between atoms: _141  and  _144
REMARK   57  A    between atoms: _144  and  _145
REMARK   58  A    between atoms: _150  and  _152
REMARK   59  A    between atoms: _152  and  _153
REMARK   60  A    between atoms: _152  and  _155
REMARK   61  A    between atoms: _155  and  _156
REMARK   62  A    between atoms: _161  and  _163
REMARK   63  A    between atoms: _163  and  _164
REMARK   64  A    between atoms: _163  and  _166
REMARK   65  A    between atoms: _169  and  _171
REMARK   66  A    between atoms: _171  and  _172
REMARK   67  A    between atoms: _171  and  _174
REMARK   68  A    between atoms: _174  and  _175
REMARK   69  A    between atoms: _178  and  _180
REMARK   70  A    between atoms: _180  and  _181
REMARK   71  A    between atoms: _180  and  _183
REMARK   72  A    between atoms: _183  and  _184
REMARK   73  A    between atoms: _187  and  _189
REMARK   74  A    between atoms: _189  and  _190
REMARK   75  A    between atoms: _189  and  _192
REMARK   76  A    between atoms: _192  and  _193
REMARK   77  A    between atoms: _196  and  _198
REMARK   78  A    between atoms: _198  and  _199
REMARK   79  A    between atoms: _198  and  _201
REMARK   80  A    between atoms: _201  and  _202
REMARK   81  A    between atoms: _205  and  _207
REMARK   82  A    between atoms: _207  and  _208
REMARK   83  A    between atoms: _210  and  _212
REMARK   84  A    between atoms: _212  and  _213
REMARK   85  A    between atoms: _212  and  _215
REMARK   86  A    between atoms: _219  and  _221
REMARK   87  A    between atoms: _221  and  _222
REMARK   88  A    between atoms: _221  and  _224
REMARK   89  A    between atoms: _224  and  _225
REMARK   90  A    between atoms: _228  and  _230
REMARK   91  A    between atoms: _230  and  _231
REMARK   92  A    between atoms: _230  and  _233
REMARK   93  A    between atoms: _233  and  _234
REMARK   94  A    between atoms: _239  and  _241
REMARK   95  A    between atoms: _241  and  _242
REMARK   96  A    between atoms: _241  and  _244
REMARK   97  A    between atoms: _244  and  _245
REMARK   98  A    between atoms: _250  and  _251
REMARK   99  A    between atoms: _253  and  _255
REMARK  100  A    between atoms: _255  and  _256
REMARK  101  A    between atoms: _255  and  _258
REMARK  102  A    between atoms: _260  and  _262
REMARK  103  A    between atoms: _262  and  _263
REMARK  104  A    between atoms: _265  and  _267
REMARK  105  A    between atoms: _267  and  _268
REMARK  106  A    between atoms: _267  and  _270
REMARK  107  A    between atoms: _270  and  _271
REMARK  108  A    between atoms: _275  and  CO_415
REMARK  109  A    between atoms: _276  and  _278
REMARK  110  A    between atoms: _278  and  _279
REMARK  111  A    between atoms: _281  and  _283
REMARK  112  A    between atoms: _283  and  _284
REMARK  113  A    between atoms: _283  and  _286
REMARK  114  A    between atoms: _286  and  _287
REMARK  115  A    between atoms: _290  and  _292
REMARK  116  A    between atoms: _292  and  _293
REMARK  117  A    between atoms: _292  and  _295
REMARK  118  A    between atoms: _295  and  _296
REMARK  119  A    between atoms: _296  and  _297
REMARK  120  A    between atoms: _299  and  _301
REMARK  121  A    between atoms: _301  and  _302
REMARK  122  A    between atoms: _301  and  _304
REMARK  123  A    between atoms: _304  and  _305
REMARK  124  A    between atoms: _310  and  _312
REMARK  125  A    between atoms: _312  and  _313
REMARK  126  A    between atoms: _312  and  _315
REMARK  127  A    between atoms: _315  and  _316
REMARK  128  A    between atoms: _319  and  _321
REMARK  129  A    between atoms: _321  and  _322
REMARK  130  A    between atoms: _321  and  _324
REMARK  131  A    between atoms: _324  and  _325
REMARK  132  A    between atoms: _328  and  _330
REMARK  133  A    between atoms: _330  and  _331
REMARK  134  A    between atoms: _330  and  _333
REMARK  135  A    between atoms: _333  and  _334
REMARK  136  A    between atoms: _337  and  _339
REMARK  137  A    between atoms: _339  and  _340
REMARK  138  A    between atoms: _339  and  _342
REMARK  139  A    between atoms: _342  and  _343
REMARK  140  A    between atoms: _343  and  _344
REMARK  141  A    between atoms: _344  and  _345
REMARK  142  A    between atoms: _345  and  CO_415
REMARK  143  A    between atoms: _347  and  _349
REMARK  144  A    between atoms: _349  and  _350
REMARK  145  A    between atoms: _349  and  _352
REMARK  146  A    between atoms: _352  and  _353
REMARK  147  A    between atoms: _353  and  _354
REMARK  148  A    between atoms: _356  and  _358
REMARK  149  A    between atoms: _358  and  _359
REMARK  150  A    between atoms: _358  and  _361
REMARK  151  A    between atoms: _361  and  _362
REMARK  152  A    between atoms: _372  and  _374
REMARK  153  A    between atoms: _374  and  _375
REMARK  154  A    between atoms: _374  and  _377
REMARK  155  A    between atoms: _377  and  _378
REMARK  156  A    between atoms: _378  and  _379
REMARK  157  A    between atoms: _384  and  _386
REMARK  158  A    between atoms: _386  and  _387
REMARK  159  A    between atoms: _386  and  _389
REMARK  160  A    between atoms: _389  and  _390
REMARK  161  A    between atoms: _396  and  _398
REMARK  162  A    between atoms: _398  and  _399
REMARK  163  A    between atoms: _398  and  _401
REMARK  164  A    between atoms: _401  and  _402
REMARK  165  A    between atoms: _402  and  _403
REMARK  166  A    between atoms: _406  and  _408
REMARK  167  A    between atoms: _408  and  _409
REMARK  168  A    between atoms: _408  and  _411
REMARK  169  A    between atoms: _411  and  _412
REMARK                            x       y       z     vdW  Elec       q    Type
REMARK                         _______ _______ _______ _____ _____    ______ ____
ROOT
ATOM      1  CG  TYR A   1      30.764 -10.322  16.889  0.00  0.00    -0.020 A 
ATOM      2  CD2 TYR A   1      30.858  -8.992  17.264  0.00  0.00    -0.001 A 
ATOM      3  CE2 TYR A   1      30.910  -7.959  16.339  0.00  0.00    +0.036 A 
ATOM      4  CZ  TYR A   1      30.900  -8.299  14.956  0.00  0.00    +0.134 A 
ATOM      5  CE1 TYR A   1      30.806  -9.579  14.572  0.00  0.00    +0.036 A 
ATOM      6  CD1 TYR A   1      30.718 -10.613  15.512  0.00  0.00    -0.001 A 
ENDROOT
BRANCH   4   7
ATOM      7  OH  TYR A   1      31.028  -7.272  14.022  0.00  0.00    -0.506 OA
ATOM      8  HH  TYR A   1      31.005  -7.653  13.109  0.00  0.00    +0.292 HD
ENDBRANCH   4   7
BRANCH   1   9
ATOM      9  CB  TYR A   1      30.676 -11.448  17.940  0.00  0.00    +0.051 C 
BRANCH   9  10
ATOM     10  CA  TYR A   1      32.018 -12.114  18.258  0.00  0.00    +0.137 C 
BRANCH  10  11
ATOM     11  N   TYR A   1      32.920 -11.124  18.799  0.00  0.00    -0.239 NA
ATOM     12  H   TYR A   1      32.675 -10.117  18.714  0.00  0.00    +0.142 HD
ENDBRANCH  10  11
BRANCH  10  13
ATOM     13  C   TYR A   1      32.519 -12.891  17.064  0.00  0.00    +0.224 C 
ATOM     14  O   TYR A   1      31.985 -13.954  16.775  0.00  0.00    -0.287 OA
ENDBRANCH  10  13
ENDBRANCH   9  10
ENDBRANCH   1   9
TORSDOF 5
REMARK  Name = ../refined-set-2016/4u73/4u73_pocket.pdb
REMARK  169 active torsions:
REMARK  status: ('A' for Active; 'I' for Inactive)
REMARK    1  A    between atoms: _1  and  _3
REMARK    2  A    between atoms: _3  and  _4
REMARK    3  A    between atoms: _3  and  _6
REMARK    4  A    between atoms: _6  and  _7
REMARK    5  A    between atoms: _12  and  _13
REMARK    6  A    between atoms: _16  and  _17
REMARK    7  A    between atoms: _22  and  _24
REMARK    8  A    between atoms: _24  and  _25
REMARK    9  A    between atoms: _24  and  _27
REMARK   10  A    between atoms: _27  and  _28
REMARK   11  A    between atoms: _31  and  _32
REMARK   12  A    between atoms: _37  and  _39
REMARK   13  A    between atoms: _39  and  _40
REMARK   14  A    between atoms: _39  and  _42
REMARK   15  A    between atoms: _42  and  _43
REMARK   16  A    between atoms: _46  and  _48
REMARK   17  A    between atoms: _48  and  _49
REMARK   18  A    between atoms: _48  and  _51
REMARK   19  A    between atoms: _51  and  _52
REMARK   20  A    between atoms: _57  and  _59
REMARK   21  A    between atoms: _59  and  _60
REMARK   22  A    between atoms: _59  and  _62
REMARK   23  A    between atoms: _62  and  _63
REMARK   24  A    between atoms: _68  and  _69
REMARK   25  A    between atoms: _71  and  _73
REMARK   26  A    between atoms: _73  and  _74
REMARK   27  A    between atoms: _73  and  _76
REMARK   28  A    between atoms: _76  and  _77
REMARK   29  A    between atoms: _82  and  _83
REMARK   30  A    between atoms: _85  and  _87
REMARK   31  A    between atoms: _87  and  _88
REMARK   32  A    between atoms: _87  and  _90
REMARK   33  A    between atoms: _90  and  _91
REMARK   34  A    between atoms: _97  and  _99
REMARK   35  A    between atoms: _99  and  _100
REMARK   36  A    between atoms: _99  and  _102
REMARK   37  A    between atoms: _102  and  _103
REMARK   38  A    between atoms: _103  and  _104
REMARK   39  A    between atoms: _104  and  _105
REMARK   40  A    between atoms: _105  and  _106
REMARK   41  A    between atoms: _110  and  _112
REMARK   42  A    between atoms: _112  and  _113
REMARK   43  A    between atoms: _112  and  _115
REMARK   44  A    between atoms: _115  and  _116
REMARK   45  A    between atoms: _118  and  _120
REMARK   46  A    between atoms: _120  and  _121
REMARK   47  A    between atoms: _120  and  _123
REMARK   48  A    between atoms: _125  and  _127
REMARK   49  A    between atoms: _127  and  _128
REMARK   50  A    between atoms: _127  and  _130
REMARK   51  A    between atoms: _132  and  _134
REMARK   52  A    between atoms: _134  and  _135
REMARK   53  A    between atoms: _134  and  _137
REMARK   54  A    between atoms: _139  and  _141
REMARK   55  A    between atoms: _141  and  _142
REMARK   56  A    between atoms: _141  and  _144
REMARK   57  A    between atoms: _144  and  _145
REMARK   58  A    between atoms: _150  and  _152
REMARK   59  A    between atoms: _152  and  _153
REMARK   60  A    between atoms: _152  and  _155
REMARK   61  A    between atoms: _155  and  _156
REMARK   62  A    between atoms: _161  and  _163
REMARK   63  A    between atoms: _163  and  _164
REMARK   64  A    between atoms: _163  and  _166
REMARK   65  A    between atoms: _169  and  _171
REMARK   66  A    between atoms: _171  and  _172
REMARK   67  A    between atoms: _171  and  _174
REMARK   68  A    between atoms: _174  and  _175
REMARK   69  A    between atoms: _178  and  _180
REMARK   70  A    between atoms: _180  and  _181
REMARK   71  A    between atoms: _180  and  _183
REMARK   72  A    between atoms: _183  and  _184
REMARK   73  A    between atoms: _187  and  _189
REMARK   74  A    between atoms: _189  and  _190
REMARK   75  A    between atoms: _189  and  _192
REMARK   76  A    between atoms: _192  and  _193
REMARK   77  A    between atoms: _196  and  _198
REMARK   78  A    between atoms: _198  and  _199
REMARK   79  A    between atoms: _198  and  _201
REMARK   80  A    between atoms: _201  and  _202
REMARK   81  A    between atoms: _205  and  _207
REMARK   82  A    between atoms: _207  and  _208
REMARK   83  A    between atoms: _210  and  _212
REMARK   84  A    between atoms: _212  and  _213
REMARK   85  A    between atoms: _212  and  _215
REMARK   86  A    between atoms: _219  and  _221
REMARK   87  A    between atoms: _221  and  _222
REMARK   88  A    between atoms: _221  and  _224
REMARK   89  A    between atoms: _224  and  _225
REMARK   90  A    between atoms: _228  and  _230
REMARK   91  A    between atoms: _230  and  _231
REMARK   92  A    between atoms: _230  and  _233
REMARK   93  A    between atoms: _233  and  _234
REMARK   94  A    between atoms: _239  and  _241
REMARK   95  A    between atoms: _241  and  _242
REMARK   96  A    between atoms: _241  and  _244
REMARK   97  A    between atoms: _244  and  _245
REMARK   98  A    between atoms: _250  and  _251
REMARK   99  A    between atoms: _253  and  _255
REMARK  100  A    between atoms: _255  and  _256
REMARK  101  A    between atoms: _255  and  _258
REMARK  102  A    between atoms: _260  and  _262
REMARK  103  A    between atoms: _262  and  _263
REMARK  104  A    between atoms: _265  and  _267
REMARK  105  A    between atoms: _267  and  _268
REMARK  106  A    between atoms: _267  and  _270
REMARK  107  A    between atoms: _270  and  _271
REMARK  108  A    between atoms: _275  and  CO_415
REMARK  109  A    between atoms: _276  and  _278
REMARK  110  A    between atoms: _278  and  _279
REMARK  111  A    between atoms: _281  and  _283
REMARK  112  A    between atoms: _283  and  _284
REMARK  113  A    between atoms: _283  and  _286
REMARK  114  A    between atoms: _286  and  _287
REMARK  115  A    between atoms: _290  and  _292
REMARK  116  A    between atoms: _292  and  _293
REMARK  117  A    between atoms: _292  and  _295
REMARK  118  A    between atoms: _295  and  _296
REMARK  119  A    between atoms: _296  and  _297
REMARK  120  A    between atoms: _299  and  _301
REMARK  121  A    between atoms: _301  and  _302
REMARK  122  A    between atoms: _301  and  _304
REMARK  123  A    between atoms: _304  and  _305
REMARK  124  A    between atoms: _310  and  _312
REMARK  125  A    between atoms: _312  and  _313
REMARK  126  A    between atoms: _312  and  _315
REMARK  127  A    between atoms: _315  and  _316
REMARK  128  A    between atoms: _319  and  _321
REMARK  129  A    between atoms: _321  and  _322
REMARK  130  A    between atoms: _321  and  _324
REMARK  131  A    between atoms: _324  and  _325
REMARK  132  A    between atoms: _328  and  _330
REMARK  133  A    between atoms: _330  and  _331
REMARK  134  A    between atoms: _330  and  _333
REMARK  135  A    between atoms: _333  and  _334
REMARK  136  A    between atoms: _337  and  _339
REMARK  137  A    between atoms: _339  and  _340
REMARK  138  A    between atoms: _339  and  _342
REMARK  139  A    between atoms: _342  and  _343
REMARK  140  A    between atoms: _343  and  _344
REMARK  141  A    between atoms: _344  and  _345
REMARK  142  A    between atoms: _345  and  CO_415
REMARK  143  A    between atoms: _347  and  _349
REMARK  144  A    between atoms: _349  and  _350
REMARK  145  A    between atoms: _349  and  _352
REMARK  146  A    between atoms: _352  and  _353
REMARK  147  A    between atoms: _353  and  _354
REMARK  148  A    between atoms: _356  and  _358
REMARK  149  A    between atoms: _358  and  _359
REMARK  150  A    between atoms: _358  and  _361
REMARK  151  A    between atoms: _361  and  _362
REMARK  152  A    between atoms: _372  and  _374
REMARK  153  A    between atoms: _374  and  _375
REMARK  154  A    between atoms: _374  and  _377
REMARK  155  A    between atoms: _377  and  _378
REMARK  156  A    between atoms: _378  and  _379
REMARK  157  A    between atoms: _384  and  _386
REMARK  158  A    between atoms: _386  and  _387
REMARK  159  A    between atoms: _386  and  _389
REMARK  160  A    between atoms: _389  and  _390
REMARK  161  A    between atoms: _396  and  _398
REMARK  162  A    between atoms: _398  and  _399
REMARK  163  A    between atoms: _398  and  _401
REMARK  164  A    between atoms: _401  and  _402
REMARK  165  A    between atoms: _402  and  _403
REMARK  166  A    between atoms: _406  and  _408
REMARK  167  A    between atoms: _408  and  _409
REMARK  168  A    between atoms: _408  and  _411
REMARK  169  A    between atoms: _411  and  _412
REMARK                            x       y       z     vdW  Elec       q    Type
REMARK                         _______ _______ _______ _____ _____    ______ ____
ROOT
ATOM      1  CA  ASN A   5      29.413 -13.994  12.109  0.00  0.00    +0.158 C 
ENDROOT
BRANCH   1   2
ATOM      2  C   ASN A   5      28.837 -13.236  13.296  0.00  0.00    +0.241 C 
ATOM      3  O   ASN A   5      28.869 -13.722  14.463  0.00  0.00    -0.273 OA
ATOM      4  N   TYR A   6      28.277 -12.034  13.039  0.00  0.00    -0.297 N 
ATOM      5  H   TYR A   6      28.390 -11.589  12.106  0.00  0.00    +0.150 HD
BRANCH   4   6
ATOM      6  CA  TYR A   6      27.521 -11.375  14.075  0.00  0.00    +0.153 C 
BRANCH   6   7
ATOM      7  C   TYR A   6      26.307 -12.204  14.351  0.00  0.00    +0.241 C 
ATOM      8  N   TYR A   7      26.324 -12.827  15.554  0.00  0.00    -0.298 N 
ATOM      9  H   TYR A   7      27.090 -12.637  16.232  0.00  0.00    +0.150 HD
ATOM     10  O   TYR A   6      25.375 -12.346  13.509  0.00  0.00    -0.273 OA
BRANCH   8  11
ATOM     11  CA  TYR A   7      25.229 -13.794  15.902  0.00  0.00    +0.141 C 
BRANCH  11  12
ATOM     12  C   TYR A   7      24.988 -14.748  14.776  0.00  0.00    +0.227 C 
ATOM     13  O   TYR A   7      23.852 -15.043  14.411  0.00  0.00    -0.286 OA
ENDBRANCH  11  12
BRANCH  11  14
ATOM     14  CB  TYR A   7      23.947 -13.048  16.347  0.00  0.00    +0.054 C 
BRANCH  14  15
ATOM     15  CG  TYR A   7      24.216 -12.402  17.714  0.00  0.00    -0.020 A 
ATOM     16  CD2 TYR A   7      23.920 -13.085  18.939  0.00  0.00    -0.001 A 
ATOM     17  CE2 TYR A   7      24.200 -12.515  20.186  0.00  0.00    +0.036 A 
ATOM     18  CZ  TYR A   7      24.833 -11.283  20.246  0.00  0.00    +0.134 A 
ATOM     19  CE1 TYR A   7      25.156 -10.610  19.002  0.00  0.00    +0.036 A 
ATOM     20  CD1 TYR A   7      24.822 -11.181  17.795  0.00  0.00    -0.001 A 
BRANCH  18  21
ATOM     21  OH  TYR A   7      25.231 -10.576  21.398  0.00  0.00    -0.506 OA
ATOM     22  HH  TYR A   7      25.659  -9.724  21.130  0.00  0.00    +0.292 HD
ENDBRANCH  18  21
ENDBRANCH  14  15
ENDBRANCH  11  14
ENDBRANCH   8  11
ENDBRANCH   6   7
BRANCH   6  23
ATOM     23  CB  TYR A   6      27.170  -9.919  13.730  0.00  0.00    +0.055 C 
BRANCH  23  24
ATOM     24  CG  TYR A   6      26.489  -9.114  14.798  0.00  0.00    -0.020 A 
ATOM     25  CD2 TYR A   6      27.217  -8.651  15.912  0.00  0.00    -0.001 A 
ATOM     26  CE2 TYR A   6      26.591  -7.894  16.883  0.00  0.00    +0.036 A 
ATOM     27  CZ  TYR A   6      25.247  -7.618  16.787  0.00  0.00    +0.134 A 
ATOM     28  CE1 TYR A   6      24.509  -8.062  15.681  0.00  0.00    +0.036 A 
ATOM     29  CD1 TYR A   6      25.160  -8.829  14.721  0.00  0.00    -0.001 A 
BRANCH  27  30
ATOM     30  OH  TYR A   6      24.605  -6.919  17.756  0.00  0.00    -0.506 OA
ATOM     31  HH  TYR A   6      25.249  -6.675  18.467  0.00  0.00    +0.292 HD
ENDBRANCH  27  30
ENDBRANCH  23  24
ENDBRANCH   6  23
ENDBRANCH   4   6
ENDBRANCH   1   2
BRANCH   1  34
ATOM     32  C   LEU A   4      30.490 -12.258  10.711  0.00  0.00    +0.241 C 
ATOM     33  O   LEU A   4      31.318 -11.865  11.519  0.00  0.00    -0.273 OA
ATOM     34  N   ASN A   5      29.653 -13.264  10.879  0.00  0.00    -0.297 N 
ATOM     35  H   ASN A   5      29.110 -13.564  10.044  0.00  0.00    +0.150 HD
BRANCH  32  36
ATOM     36  CA  LEU A   4      30.329 -11.566   9.345  0.00  0.00    +0.149 C 
BRANCH  36  39
ATOM     37  C   PRO A   3      28.699  -9.887   9.975  0.00  0.00    +0.241 C 
ATOM     38  O   PRO A   3      27.950 -10.729  10.433  0.00  0.00    -0.273 OA
ATOM     39  N   LEU A   4      29.903 -10.177   9.546  0.00  0.00    -0.297 N 
ATOM     40  H   LEU A   4      30.571  -9.406   9.344  0.00  0.00    +0.150 HD
BRANCH  37  44
ATOM     41  C   SER A   2      30.139  -7.331  10.881  0.00  0.00    +0.246 C 
ATOM     42  O   SER A   2      29.979  -8.042  11.895  0.00  0.00    -0.273 OA
ATOM     43  N   PRO A   3      29.321  -7.443   9.799  0.00  0.00    -0.272 N 
ATOM     44  CA  PRO A   3      28.261  -8.432   9.850  0.00  0.00    +0.152 C 
ATOM     45  CB  PRO A   3      27.550  -8.220   8.499  0.00  0.00    +0.031 C 
ATOM     46  CG  PRO A   3      27.702  -6.737   8.269  0.00  0.00    +0.024 C 
ATOM     47  CD  PRO A   3      29.217  -6.685   8.515  0.00  0.00    +0.094 C 
BRANCH  41  48
ATOM     48  CA  SER A   2      31.262  -6.319  10.883  0.00  0.00    +0.178 C 
BRANCH  48  50
ATOM     49  C   PRO A   1      32.394  -7.158   8.874  0.00  0.00    +0.239 C 
ATOM     50  N   SER A   2      32.014  -6.134   9.637  0.00  0.00    -0.295 N 
ATOM     51  H   SER A   2      32.259  -5.168   9.338  0.00  0.00    +0.150 HD
ATOM     52  O   PRO A   1      32.113  -8.338   9.130  0.00  0.00    -0.274 OA
BRANCH  49  54
ATOM     53  N   PRO A   1      34.658  -7.006   8.083  0.00  0.00    -0.210 NA
ATOM     54  CA  PRO A   1      33.261  -6.807   7.693  0.00  0.00    +0.149 C 
ATOM     55  CB  PRO A   1      33.116  -7.708   6.481  0.00  0.00    +0.028 C 
ATOM     56  CG  PRO A   1      34.093  -8.830   6.715  0.00  0.00    +0.021 C 
ATOM     57  CD  PRO A   1      35.257  -8.141   7.390  0.00  0.00    +0.089 C 
ENDBRANCH  49  54
ENDBRANCH  48  50
BRANCH  48  58
ATOM     58  CB  SER A   2      30.785  -5.003  11.459  0.00  0.00    +0.166 C 
BRANCH  58  59
ATOM     59  OG  SER A   2      31.804  -4.015  11.546  0.00  0.00    -0.380 OA
ATOM     60  H   SER A   2      31.425  -3.185  11.929  0.00  0.00    +0.211 HD
ENDBRANCH  58  59
ENDBRANCH  48  58
ENDBRANCH  41  48
ENDBRANCH  37  44
ENDBRANCH  36  39
BRANCH  36  61
ATOM     61  CB  LEU A   4      31.633 -11.578   8.590  0.00  0.00    +0.029 C 
BRANCH  61  62
ATOM     62  CG  LEU A   4      32.239 -12.952   8.276  0.00  0.00    +0.002 C 
ATOM     63  CD2 LEU A   4      33.614 -12.978   7.703  0.00  0.00    +0.000 C 
ATOM     64  CD1 LEU A   4      31.322 -13.646   7.360  0.00  0.00    +0.000 C 
ENDBRANCH  61  62
ENDBRANCH  36  61
ENDBRANCH  32  36
ENDBRANCH   1  34
BRANCH   1  65
ATOM     65  CB  ASN A   5      30.706 -14.757  12.515  0.00  0.00    +0.114 C 
BRANCH  65  66
ATOM     66  CG  ASN A   5      30.390 -15.906  13.463  0.00  0.00    +0.222 C 
ATOM     67  ND2 ASN A   5      31.013 -15.948  14.672  0.00  0.00    -0.329 N 
ATOM     68 HD21 ASN A   5      30.734 -16.661  15.376  0.00  0.00    +0.145 HD
ATOM     69 HD22 ASN A   5      31.768 -15.267  14.892  0.00  0.00    +0.145 HD
ATOM     70  OD1 ASN A   5      29.509 -16.671  13.156  0.00  0.00    -0.275 OA
ENDBRANCH  65  66
ENDBRANCH   1  65
TORSDOF 24
REMARK  Name = ../refined-set-2016/4u73/4u73_pocket.pdb
REMARK  169 active torsions:
REMARK  status: ('A' for Active; 'I' for Inactive)
REMARK    1  A    between atoms: _1  and  _3
REMARK    2  A    between atoms: _3  and  _4
REMARK    3  A    between atoms: _3  and  _6
REMARK    4  A    between atoms: _6  and  _7
REMARK    5  A    between atoms: _12  and  _13
REMARK    6  A    between atoms: _16  and  _17
REMARK    7  A    between atoms: _22  and  _24
REMARK    8  A    between atoms: _24  and  _25
REMARK    9  A    between atoms: _24  and  _27
REMARK   10  A    between atoms: _27  and  _28
REMARK   11  A    between atoms: _31  and  _32
REMARK   12  A    between atoms: _37  and  _39
REMARK   13  A    between atoms: _39  and  _40
REMARK   14  A    between atoms: _39  and  _42
REMARK   15  A    between atoms: _42  and  _43
REMARK   16  A    between atoms: _46  and  _48
REMARK   17  A    between atoms: _48  and  _49
REMARK   18  A    between atoms: _48  and  _51
REMARK   19  A    between atoms: _51  and  _52
REMARK   20  A    between atoms: _57  and  _59
REMARK   21  A    between atoms: _59  and  _60
REMARK   22  A    between atoms: _59  and  _62
REMARK   23  A    between atoms: _62  and  _63
REMARK   24  A    between atoms: _68  and  _69
REMARK   25  A    between atoms: _71  and  _73
REMARK   26  A    between atoms: _73  and  _74
REMARK   27  A    between atoms: _73  and  _76
REMARK   28  A    between atoms: _76  and  _77
REMARK   29  A    between atoms: _82  and  _83
REMARK   30  A    between atoms: _85  and  _87
REMARK   31  A    between atoms: _87  and  _88
REMARK   32  A    between atoms: _87  and  _90
REMARK   33  A    between atoms: _90  and  _91
REMARK   34  A    between atoms: _97  and  _99
REMARK   35  A    between atoms: _99  and  _100
REMARK   36  A    between atoms: _99  and  _102
REMARK   37  A    between atoms: _102  and  _103
REMARK   38  A    between atoms: _103  and  _104
REMARK   39  A    between atoms: _104  and  _105
REMARK   40  A    between atoms: _105  and  _106
REMARK   41  A    between atoms: _110  and  _112
REMARK   42  A    between atoms: _112  and  _113
REMARK   43  A    between atoms: _112  and  _115
REMARK   44  A    between atoms: _115  and  _116
REMARK   45  A    between atoms: _118  and  _120
REMARK   46  A    between atoms: _120  and  _121
REMARK   47  A    between atoms: _120  and  _123
REMARK   48  A    between atoms: _125  and  _127
REMARK   49  A    between atoms: _127  and  _128
REMARK   50  A    between atoms: _127  and  _130
REMARK   51  A    between atoms: _132  and  _134
REMARK   52  A    between atoms: _134  and  _135
REMARK   53  A    between atoms: _134  and  _137
REMARK   54  A    between atoms: _139  and  _141
REMARK   55  A    between atoms: _141  and  _142
REMARK   56  A    between atoms: _141  and  _144
REMARK   57  A    between atoms: _144  and  _145
REMARK   58  A    between atoms: _150  and  _152
REMARK   59  A    between atoms: _152  and  _153
REMARK   60  A    between atoms: _152  and  _155
REMARK   61  A    between atoms: _155  and  _156
REMARK   62  A    between atoms: _161  and  _163
REMARK   63  A    between atoms: _163  and  _164
REMARK   64  A    between atoms: _163  and  _166
REMARK   65  A    between atoms: _169  and  _171
REMARK   66  A    between atoms: _171  and  _172
REMARK   67  A    between atoms: _171  and  _174
REMARK   68  A    between atoms: _174  and  _175
REMARK   69  A    between atoms: _178  and  _180
REMARK   70  A    between atoms: _180  and  _181
REMARK   71  A    between atoms: _180  and  _183
REMARK   72  A    between atoms: _183  and  _184
REMARK   73  A    between atoms: _187  and  _189
REMARK   74  A    between atoms: _189  and  _190
REMARK   75  A    between atoms: _189  and  _192
REMARK   76  A    between atoms: _192  and  _193
REMARK   77  A    between atoms: _196  and  _198
REMARK   78  A    between atoms: _198  and  _199
REMARK   79  A    between atoms: _198  and  _201
REMARK   80  A    between atoms: _201  and  _202
REMARK   81  A    between atoms: _205  and  _207
REMARK   82  A    between atoms: _207  and  _208
REMARK   83  A    between atoms: _210  and  _212
REMARK   84  A    between atoms: _212  and  _213
REMARK   85  A    between atoms: _212  and  _215
REMARK   86  A    between atoms: _219  and  _221
REMARK   87  A    between atoms: _221  and  _222
REMARK   88  A    between atoms: _221  and  _224
REMARK   89  A    between atoms: _224  and  _225
REMARK   90  A    between atoms: _228  and  _230
REMARK   91  A    between atoms: _230  and  _231
REMARK   92  A    between atoms: _230  and  _233
REMARK   93  A    between atoms: _233  and  _234
REMARK   94  A    between atoms: _239  and  _241
REMARK   95  A    between atoms: _241  and  _242
REMARK   96  A    between atoms: _241  and  _244
REMARK   97  A    between atoms: _244  and  _245
REMARK   98  A    between atoms: _250  and  _251
REMARK   99  A    between atoms: _253  and  _255
REMARK  100  A    between atoms: _255  and  _256
REMARK  101  A    between atoms: _255  and  _258
REMARK  102  A    between atoms: _260  and  _262
REMARK  103  A    between atoms: _262  and  _263
REMARK  104  A    between atoms: _265  and  _267
REMARK  105  A    between atoms: _267  and  _268
REMARK  106  A    between atoms: _267  and  _270
REMARK  107  A    between atoms: _270  and  _271
REMARK  108  A    between atoms: _275  and  CO_415
REMARK  109  A    between atoms: _276  and  _278
REMARK  110  A    between atoms: _278  and  _279
REMARK  111  A    between atoms: _281  and  _283
REMARK  112  A    between atoms: _283  and  _284
REMARK  113  A    between atoms: _283  and  _286
REMARK  114  A    between atoms: _286  and  _287
REMARK  115  A    between atoms: _290  and  _292
REMARK  116  A    between atoms: _292  and  _293
REMARK  117  A    between atoms: _292  and  _295
REMARK  118  A    between atoms: _295  and  _296
REMARK  119  A    between atoms: _296  and  _297
REMARK  120  A    between atoms: _299  and  _301
REMARK  121  A    between atoms: _301  and  _302
REMARK  122  A    between atoms: _301  and  _304
REMARK  123  A    between atoms: _304  and  _305
REMARK  124  A    between atoms: _310  and  _312
REMARK  125  A    between atoms: _312  and  _313
REMARK  126  A    between atoms: _312  and  _315
REMARK  127  A    between atoms: _315  and  _316
REMARK  128  A    between atoms: _319  and  _321
REMARK  129  A    between atoms: _321  and  _322
REMARK  130  A    between atoms: _321  and  _324
REMARK  131  A    between atoms: _324  and  _325
REMARK  132  A    between atoms: _328  and  _330
REMARK  133  A    between atoms: _330  and  _331
REMARK  134  A    between atoms: _330  and  _333
REMARK  135  A    between atoms: _333  and  _334
REMARK  136  A    between atoms: _337  and  _339
REMARK  137  A    between atoms: _339  and  _340
REMARK  138  A    between atoms: _339  and  _342
REMARK  139  A    between atoms: _342  and  _343
REMARK  140  A    between atoms: _343  and  _344
REMARK  141  A    between atoms: _344  and  _345
REMARK  142  A    between atoms: _345  and  CO_415
REMARK  143  A    between atoms: _347  and  _349
REMARK  144  A    between atoms: _349  and  _350
REMARK  145  A    between atoms: _349  and  _352
REMARK  146  A    between atoms: _352  and  _353
REMARK  147  A    between atoms: _353  and  _354
REMARK  148  A    between atoms: _356  and  _358
REMARK  149  A    between atoms: _358  and  _359
REMARK  150  A    between atoms: _358  and  _361
REMARK  151  A    between atoms: _361  and  _362
REMARK  152  A    between atoms: _372  and  _374
REMARK  153  A    between atoms: _374  and  _375
REMARK  154  A    between atoms: _374  and  _377
REMARK  155  A    between atoms: _377  and  _378
REMARK  156  A    between atoms: _378  and  _379
REMARK  157  A    between atoms: _384  and  _386
REMARK  158  A    between atoms: _386  and  _387
REMARK  159  A    between atoms: _386  and  _389
REMARK  160  A    between atoms: _389  and  _390
REMARK  161  A    between atoms: _396  and  _398
REMARK  162  A    between atoms: _398  and  _399
REMARK  163  A    between atoms: _398  and  _401
REMARK  164  A    between atoms: _401  and  _402
REMARK  165  A    between atoms: _402  and  _403
REMARK  166  A    between atoms: _406  and  _408
REMARK  167  A    between atoms: _408  and  _409
REMARK  168  A    between atoms: _408  and  _411
REMARK  169  A    between atoms: _411  and  _412
REMARK                            x       y       z     vdW  Elec       q    Type
REMARK                         _______ _______ _______ _____ _____    ______ ____
ROOT
ATOM      1  CB  PHE A   1      25.044 -12.366  10.260  0.00  0.00    +0.051 C 
ENDROOT
BRANCH   1   2
ATOM      2  CG  PHE A   1      24.522 -11.799   8.985  0.00  0.00    -0.020 A 
ATOM      3  CD2 PHE A   1      23.147 -11.728   8.740  0.00  0.00    -0.004 A 
ATOM      4  CE2 PHE A   1      22.719 -11.207   7.501  0.00  0.00    -0.000 A 
ATOM      5  CZ  PHE A   1      23.617 -10.717   6.600  0.00  0.00    -0.000 A 
ATOM      6  CE1 PHE A   1      24.958 -10.828   6.811  0.00  0.00    -0.000 A 
ATOM      7  CD1 PHE A   1      25.411 -11.287   8.018  0.00  0.00    -0.004 A 
ENDBRANCH   1   2
BRANCH   1   8
ATOM      8  CA  PHE A   1      25.096 -13.859  10.268  0.00  0.00    +0.137 C 
BRANCH   8   9
ATOM      9  N   PHE A   1      25.453 -14.375  11.650  0.00  0.00    -0.239 NA
ATOM     10  H   PHE A   1      25.588 -13.726  12.451  0.00  0.00    +0.142 HD
ENDBRANCH   8   9
BRANCH   8  11
ATOM     11  C   PHE A   1      26.152 -14.339   9.318  0.00  0.00    +0.224 C 
ATOM     12  O   PHE A   1      27.324 -14.237   9.630  0.00  0.00    -0.287 OA
ENDBRANCH   8  11
ENDBRANCH   1   8
TORSDOF 4
REMARK  Name = ../refined-set-2016/4u73/4u73_pocket.pdb
REMARK  169 active torsions:
REMARK  status: ('A' for Active; 'I' for Inactive)
REMARK    1  A    between atoms: _1  and  _3
REMARK    2  A    between atoms: _3  and  _4
REMARK    3  A    between atoms: _3  and  _6
REMARK    4  A    between atoms: _6  and  _7
REMARK    5  A    between atoms: _12  and  _13
REMARK    6  A    between atoms: _16  and  _17
REMARK    7  A    between atoms: _22  and  _24
REMARK    8  A    between atoms: _24  and  _25
REMARK    9  A    between atoms: _24  and  _27
REMARK   10  A    between atoms: _27  and  _28
REMARK   11  A    between atoms: _31  and  _32
REMARK   12  A    between atoms: _37  and  _39
REMARK   13  A    between atoms: _39  and  _40
REMARK   14  A    between atoms: _39  and  _42
REMARK   15  A    between atoms: _42  and  _43
REMARK   16  A    between atoms: _46  and  _48
REMARK   17  A    between atoms: _48  and  _49
REMARK   18  A    between atoms: _48  and  _51
REMARK   19  A    between atoms: _51  and  _52
REMARK   20  A    between atoms: _57  and  _59
REMARK   21  A    between atoms: _59  and  _60
REMARK   22  A    between atoms: _59  and  _62
REMARK   23  A    between atoms: _62  and  _63
REMARK   24  A    between atoms: _68  and  _69
REMARK   25  A    between atoms: _71  and  _73
REMARK   26  A    between atoms: _73  and  _74
REMARK   27  A    between atoms: _73  and  _76
REMARK   28  A    between atoms: _76  and  _77
REMARK   29  A    between atoms: _82  and  _83
REMARK   30  A    between atoms: _85  and  _87
REMARK   31  A    between atoms: _87  and  _88
REMARK   32  A    between atoms: _87  and  _90
REMARK   33  A    between atoms: _90  and  _91
REMARK   34  A    between atoms: _97  and  _99
REMARK   35  A    between atoms: _99  and  _100
REMARK   36  A    between atoms: _99  and  _102
REMARK   37  A    between atoms: _102  and  _103
REMARK   38  A    between atoms: _103  and  _104
REMARK   39  A    between atoms: _104  and  _105
REMARK   40  A    between atoms: _105  and  _106
REMARK   41  A    between atoms: _110  and  _112
REMARK   42  A    between atoms: _112  and  _113
REMARK   43  A    between atoms: _112  and  _115
REMARK   44  A    between atoms: _115  and  _116
REMARK   45  A    between atoms: _118  and  _120
REMARK   46  A    between atoms: _120  and  _121
REMARK   47  A    between atoms: _120  and  _123
REMARK   48  A    between atoms: _125  and  _127
REMARK   49  A    between atoms: _127  and  _128
REMARK   50  A    between atoms: _127  and  _130
REMARK   51  A    between atoms: _132  and  _134
REMARK   52  A    between atoms: _134  and  _135
REMARK   53  A    between atoms: _134  and  _137
REMARK   54  A    between atoms: _139  and  _141
REMARK   55  A    between atoms: _141  and  _142
REMARK   56  A    between atoms: _141  and  _144
REMARK   57  A    between atoms: _144  and  _145
REMARK   58  A    between atoms: _150  and  _152
REMARK   59  A    between atoms: _152  and  _153
REMARK   60  A    between atoms: _152  and  _155
REMARK   61  A    between atoms: _155  and  _156
REMARK   62  A    between atoms: _161  and  _163
REMARK   63  A    between atoms: _163  and  _164
REMARK   64  A    between atoms: _163  and  _166
REMARK   65  A    between atoms: _169  and  _171
REMARK   66  A    between atoms: _171  and  _172
REMARK   67  A    between atoms: _171  and  _174
REMARK   68  A    between atoms: _174  and  _175
REMARK   69  A    between atoms: _178  and  _180
REMARK   70  A    between atoms: _180  and  _181
REMARK   71  A    between atoms: _180  and  _183
REMARK   72  A    between atoms: _183  and  _184
REMARK   73  A    between atoms: _187  and  _189
REMARK   74  A    between atoms: _189  and  _190
REMARK   75  A    between atoms: _189  and  _192
REMARK   76  A    between atoms: _192  and  _193
REMARK   77  A    between atoms: _196  and  _198
REMARK   78  A    between atoms: _198  and  _199
REMARK   79  A    between atoms: _198  and  _201
REMARK   80  A    between atoms: _201  and  _202
REMARK   81  A    between atoms: _205  and  _207
REMARK   82  A    between atoms: _207  and  _208
REMARK   83  A    between atoms: _210  and  _212
REMARK   84  A    between atoms: _212  and  _213
REMARK   85  A    between atoms: _212  and  _215
REMARK   86  A    between atoms: _219  and  _221
REMARK   87  A    between atoms: _221  and  _222
REMARK   88  A    between atoms: _221  and  _224
REMARK   89  A    between atoms: _224  and  _225
REMARK   90  A    between atoms: _228  and  _230
REMARK   91  A    between atoms: _230  and  _231
REMARK   92  A    between atoms: _230  and  _233
REMARK   93  A    between atoms: _233  and  _234
REMARK   94  A    between atoms: _239  and  _241
REMARK   95  A    between atoms: _241  and  _242
REMARK   96  A    between atoms: _241  and  _244
REMARK   97  A    between atoms: _244  and  _245
REMARK   98  A    between atoms: _250  and  _251
REMARK   99  A    between atoms: _253  and  _255
REMARK  100  A    between atoms: _255  and  _256
REMARK  101  A    between atoms: _255  and  _258
REMARK  102  A    between atoms: _260  and  _262
REMARK  103  A    between atoms: _262  and  _263
REMARK  104  A    between atoms: _265  and  _267
REMARK  105  A    between atoms: _267  and  _268
REMARK  106  A    between atoms: _267  and  _270
REMARK  107  A    between atoms: _270  and  _271
REMARK  108  A    between atoms: _275  and  CO_415
REMARK  109  A    between atoms: _276  and  _278
REMARK  110  A    between atoms: _278  and  _279
REMARK  111  A    between atoms: _281  and  _283
REMARK  112  A    between atoms: _283  and  _284
REMARK  113  A    between atoms: _283  and  _286
REMARK  114  A    between atoms: _286  and  _287
REMARK  115  A    between atoms: _290  and  _292
REMARK  116  A    between atoms: _292  and  _293
REMARK  117  A    between atoms: _292  and  _295
REMARK  118  A    between atoms: _295  and  _296
REMARK  119  A    between atoms: _296  and  _297
REMARK  120  A    between atoms: _299  and  _301
REMARK  121  A    between atoms: _301  and  _302
REMARK  122  A    between atoms: _301  and  _304
REMARK  123  A    between atoms: _304  and  _305
REMARK  124  A    between atoms: _310  and  _312
REMARK  125  A    between atoms: _312  and  _313
REMARK  126  A    between atoms: _312  and  _315
REMARK  127  A    between atoms: _315  and  _316
REMARK  128  A    between atoms: _319  and  _321
REMARK  129  A    between atoms: _321  and  _322
REMARK  130  A    between atoms: _321  and  _324
REMARK  131  A    between atoms: _324  and  _325
REMARK  132  A    between atoms: _328  and  _330
REMARK  133  A    between atoms: _330  and  _331
REMARK  134  A    between atoms: _330  and  _333
REMARK  135  A    between atoms: _333  and  _334
REMARK  136  A    between atoms: _337  and  _339
REMARK  137  A    between atoms: _339  and  _340
REMARK  138  A    between atoms: _339  and  _342
REMARK  139  A    between atoms: _342  and  _343
REMARK  140  A    between atoms: _343  and  _344
REMARK  141  A    between atoms: _344  and  _345
REMARK  142  A    between atoms: _345  and  CO_415
REMARK  143  A    between atoms: _347  and  _349
REMARK  144  A    between atoms: _349  and  _350
REMARK  145  A    between atoms: _349  and  _352
REMARK  146  A    between atoms: _352  and  _353
REMARK  147  A    between atoms: _353  and  _354
REMARK  148  A    between atoms: _356  and  _358
REMARK  149  A    between atoms: _358  and  _359
REMARK  150  A    between atoms: _358  and  _361
REMARK  151  A    between atoms: _361  and  _362
REMARK  152  A    between atoms: _372  and  _374
REMARK  153  A    between atoms: _374  and  _375
REMARK  154  A    between atoms: _374  and  _377
REMARK  155  A    between atoms: _377  and  _378
REMARK  156  A    between atoms: _378  and  _379
REMARK  157  A    between atoms: _384  and  _386
REMARK  158  A    between atoms: _386  and  _387
REMARK  159  A    between atoms: _386  and  _389
REMARK  160  A    between atoms: _389  and  _390
REMARK  161  A    between atoms: _396  and  _398
REMARK  162  A    between atoms: _398  and  _399
REMARK  163  A    between atoms: _398  and  _401
REMARK  164  A    between atoms: _401  and  _402
REMARK  165  A    between atoms: _402  and  _403
REMARK  166  A    between atoms: _406  and  _408
REMARK  167  A    between atoms: _408  and  _409
REMARK  168  A    between atoms: _408  and  _411
REMARK  169  A    between atoms: _411  and  _412
REMARK                            x       y       z     vdW  Elec       q    Type
REMARK                         _______ _______ _______ _____ _____    ______ ____
ROOT
ATOM      1  CA  SER A   2      29.738  -9.526   5.010  0.00  0.00    +0.178 C 
ENDROOT
BRANCH   1   4
ATOM      2  C   LYS A   1      28.410 -11.535   5.506  0.00  0.00    +0.238 C 
ATOM      3  O   LYS A   1      28.462 -11.344   6.724  0.00  0.00    -0.274 OA
ATOM      4  N   SER A   2      28.926 -10.704   4.627  0.00  0.00    -0.295 N 
ATOM      5  H   SER A   2      28.756 -10.882   3.617  0.00  0.00    +0.150 HD
BRANCH   2   6
ATOM      6  CA  LYS A   1      27.837 -12.813   4.983  0.00  0.00    +0.145 C 
BRANCH   6   7
ATOM      7  N   LYS A   1      27.306 -13.565   6.128  0.00  0.00    -0.238 NA
ATOM      8  H   LYS A   1      26.740 -13.066   6.844  0.00  0.00    +0.142 HD
ENDBRANCH   6   7
BRANCH   6   9
ATOM      9  CB  LYS A   1      26.717 -12.599   3.981  0.00  0.00    +0.026 C 
BRANCH   9  10
ATOM     10  CG  LYS A   1      26.330 -13.827   3.221  0.00  0.00    -0.000 C 
BRANCH  10  11
ATOM     11  CD  LYS A   1      27.434 -14.257   2.232  0.00  0.00    -0.024 C 
BRANCH  11  12
ATOM     12  CE  LYS A   1      26.905 -15.284   1.225  0.00  0.00    -0.086 C 
BRANCH  12  13
ATOM     13  NZ  LYS A   1      28.000 -15.711   0.292  0.00  0.00    +0.380 N 
ATOM     14  HZ1 LYS A   1      28.773 -16.139   0.840  0.00  0.00    -0.089 HD
ATOM     15  HZ2 LYS A   1      28.357 -14.882  -0.224  0.00  0.00    -0.089 HD
ATOM     16  HZ3 LYS A   1      27.626 -16.407  -0.384  0.00  0.00    -0.089 HD
ENDBRANCH  12  13
ENDBRANCH  11  12
ENDBRANCH  10  11
ENDBRANCH   9  10
ENDBRANCH   6   9
ENDBRANCH   2   6
ENDBRANCH   1   4
BRANCH   1  17
ATOM     17  C   SER A   2      29.007  -8.209   4.874  0.00  0.00    +0.243 C 
ATOM     18  O   SER A   2      29.571  -7.162   5.159  0.00  0.00    -0.273 OA
ATOM     19  N   CYS A   3      27.745  -8.275   4.501  0.00  0.00    -0.296 N 
ATOM     20  H   CYS A   3      27.335  -9.212   4.315  0.00  0.00    +0.150 HD
BRANCH  19  21
ATOM     21  CA  CYS A   3      26.870  -7.072   4.331  0.00  0.00    +0.160 C 
BRANCH  21  22
ATOM     22  C   CYS A   3      25.421  -7.631   4.249  0.00  0.00    +0.242 C 
ATOM     23  N   CYS A   4      24.459  -6.731   4.295  0.00  0.00    -0.297 N 
ATOM     24  H   CYS A   4      24.692  -5.724   4.409  0.00  0.00    +0.150 HD
ATOM     25  O   CYS A   3      25.213  -8.870   4.074  0.00  0.00    -0.273 OA
BRANCH  23  26
ATOM     26  CA  CYS A   4      23.052  -7.155   4.185  0.00  0.00    +0.149 C 
BRANCH  26  27
ATOM     27  C   CYS A   4      22.515  -6.595   2.849  0.00  0.00    +0.228 C 
ATOM     28  O   CYS A   4      22.607  -5.386   2.646  0.00  0.00    -0.286 OA
ENDBRANCH  26  27
BRANCH  26  29
ATOM     29  CB  CYS A   4      22.199  -6.669   5.316  0.00  0.00    +0.096 C 
ATOM     30  SG  CYS A   4      22.781  -7.092   6.983  0.00  0.00    -0.080 S 
ENDBRANCH  26  29
ENDBRANCH  23  26
ENDBRANCH  21  22
BRANCH  21  31
ATOM     31  CB  CYS A   3      27.173  -6.306   3.031  0.00  0.00    +0.098 C 
ATOM     32  SG  CYS A   3      26.879  -7.147   1.441  0.00  0.00    -0.080 S 
ENDBRANCH  21  31
ENDBRANCH  19  21
ENDBRANCH   1  17
BRANCH   1  33
ATOM     33  CB  SER A   2      31.012  -9.454   4.207  0.00  0.00    +0.166 C 
BRANCH  33  34
ATOM     34  OG  SER A   2      31.806 -10.660   4.455  0.00  0.00    -0.380 OA
ATOM     35  H   SER A   2      31.286 -11.458   4.184  0.00  0.00    +0.211 HD
ENDBRANCH  33  34
ENDBRANCH   1  33
TORSDOF 17
REMARK  Name = ../refined-set-2016/4u73/4u73_pocket.pdb
REMARK  169 active torsions:
REMARK  status: ('A' for Active; 'I' for Inactive)
REMARK    1  A    between atoms: _1  and  _3
REMARK    2  A    between atoms: _3  and  _4
REMARK    3  A    between atoms: _3  and  _6
REMARK    4  A    between atoms: _6  and  _7
REMARK    5  A    between atoms: _12  and  _13
REMARK    6  A    between atoms: _16  and  _17
REMARK    7  A    between atoms: _22  and  _24
REMARK    8  A    between atoms: _24  and  _25
REMARK    9  A    between atoms: _24  and  _27
REMARK   10  A    between atoms: _27  and  _28
REMARK   11  A    between atoms: _31  and  _32
REMARK   12  A    between atoms: _37  and  _39
REMARK   13  A    between atoms: _39  and  _40
REMARK   14  A    between atoms: _39  and  _42
REMARK   15  A    between atoms: _42  and  _43
REMARK   16  A    between atoms: _46  and  _48
REMARK   17  A    between atoms: _48  and  _49
REMARK   18  A    between atoms: _48  and  _51
REMARK   19  A    between atoms: _51  and  _52
REMARK   20  A    between atoms: _57  and  _59
REMARK   21  A    between atoms: _59  and  _60
REMARK   22  A    between atoms: _59  and  _62
REMARK   23  A    between atoms: _62  and  _63
REMARK   24  A    between atoms: _68  and  _69
REMARK   25  A    between atoms: _71  and  _73
REMARK   26  A    between atoms: _73  and  _74
REMARK   27  A    between atoms: _73  and  _76
REMARK   28  A    between atoms: _76  and  _77
REMARK   29  A    between atoms: _82  and  _83
REMARK   30  A    between atoms: _85  and  _87
REMARK   31  A    between atoms: _87  and  _88
REMARK   32  A    between atoms: _87  and  _90
REMARK   33  A    between atoms: _90  and  _91
REMARK   34  A    between atoms: _97  and  _99
REMARK   35  A    between atoms: _99  and  _100
REMARK   36  A    between atoms: _99  and  _102
REMARK   37  A    between atoms: _102  and  _103
REMARK   38  A    between atoms: _103  and  _104
REMARK   39  A    between atoms: _104  and  _105
REMARK   40  A    between atoms: _105  and  _106
REMARK   41  A    between atoms: _110  and  _112
REMARK   42  A    between atoms: _112  and  _113
REMARK   43  A    between atoms: _112  and  _115
REMARK   44  A    between atoms: _115  and  _116
REMARK   45  A    between atoms: _118  and  _120
REMARK   46  A    between atoms: _120  and  _121
REMARK   47  A    between atoms: _120  and  _123
REMARK   48  A    between atoms: _125  and  _127
REMARK   49  A    between atoms: _127  and  _128
REMARK   50  A    between atoms: _127  and  _130
REMARK   51  A    between atoms: _132  and  _134
REMARK   52  A    between atoms: _134  and  _135
REMARK   53  A    between atoms: _134  and  _137
REMARK   54  A    between atoms: _139  and  _141
REMARK   55  A    between atoms: _141  and  _142
REMARK   56  A    between atoms: _141  and  _144
REMARK   57  A    between atoms: _144  and  _145
REMARK   58  A    between atoms: _150  and  _152
REMARK   59  A    between atoms: _152  and  _153
REMARK   60  A    between atoms: _152  and  _155
REMARK   61  A    between atoms: _155  and  _156
REMARK   62  A    between atoms: _161  and  _163
REMARK   63  A    between atoms: _163  and  _164
REMARK   64  A    between atoms: _163  and  _166
REMARK   65  A    between atoms: _169  and  _171
REMARK   66  A    between atoms: _171  and  _172
REMARK   67  A    between atoms: _171  and  _174
REMARK   68  A    between atoms: _174  and  _175
REMARK   69  A    between atoms: _178  and  _180
REMARK   70  A    between atoms: _180  and  _181
REMARK   71  A    between atoms: _180  and  _183
REMARK   72  A    between atoms: _183  and  _184
REMARK   73  A    between atoms: _187  and  _189
REMARK   74  A    between atoms: _189  and  _190
REMARK   75  A    between atoms: _189  and  _192
REMARK   76  A    between atoms: _192  and  _193
REMARK   77  A    between atoms: _196  and  _198
REMARK   78  A    between atoms: _198  and  _199
REMARK   79  A    between atoms: _198  and  _201
REMARK   80  A    between atoms: _201  and  _202
REMARK   81  A    between atoms: _205  and  _207
REMARK   82  A    between atoms: _207  and  _208
REMARK   83  A    between atoms: _210  and  _212
REMARK   84  A    between atoms: _212  and  _213
REMARK   85  A    between atoms: _212  and  _215
REMARK   86  A    between atoms: _219  and  _221
REMARK   87  A    between atoms: _221  and  _222
REMARK   88  A    between atoms: _221  and  _224
REMARK   89  A    between atoms: _224  and  _225
REMARK   90  A    between atoms: _228  and  _230
REMARK   91  A    between atoms: _230  and  _231
REMARK   92  A    between atoms: _230  and  _233
REMARK   93  A    between atoms: _233  and  _234
REMARK   94  A    between atoms: _239  and  _241
REMARK   95  A    between atoms: _241  and  _242
REMARK   96  A    between atoms: _241  and  _244
REMARK   97  A    between atoms: _244  and  _245
REMARK   98  A    between atoms: _250  and  _251
REMARK   99  A    between atoms: _253  and  _255
REMARK  100  A    between atoms: _255  and  _256
REMARK  101  A    between atoms: _255  and  _258
REMARK  102  A    between atoms: _260  and  _262
REMARK  103  A    between atoms: _262  and  _263
REMARK  104  A    between atoms: _265  and  _267
REMARK  105  A    between atoms: _267  and  _268
REMARK  106  A    between atoms: _267  and  _270
REMARK  107  A    between atoms: _270  and  _271
REMARK  108  A    between atoms: _275  and  CO_415
REMARK  109  A    between atoms: _276  and  _278
REMARK  110  A    between atoms: _278  and  _279
REMARK  111  A    between atoms: _281  and  _283
REMARK  112  A    between atoms: _283  and  _284
REMARK  113  A    between atoms: _283  and  _286
REMARK  114  A    between atoms: _286  and  _287
REMARK  115  A    between atoms: _290  and  _292
REMARK  116  A    between atoms: _292  and  _293
REMARK  117  A    between atoms: _292  and  _295
REMARK  118  A    between atoms: _295  and  _296
REMARK  119  A    between atoms: _296  and  _297
REMARK  120  A    between atoms: _299  and  _301
REMARK  121  A    between atoms: _301  and  _302
REMARK  122  A    between atoms: _301  and  _304
REMARK  123  A    between atoms: _304  and  _305
REMARK  124  A    between atoms: _310  and  _312
REMARK  125  A    between atoms: _312  and  _313
REMARK  126  A    between atoms: _312  and  _315
REMARK  127  A    between atoms: _315  and  _316
REMARK  128  A    between atoms: _319  and  _321
REMARK  129  A    between atoms: _321  and  _322
REMARK  130  A    between atoms: _321  and  _324
REMARK  131  A    between atoms: _324  and  _325
REMARK  132  A    between atoms: _328  and  _330
REMARK  133  A    between atoms: _330  and  _331
REMARK  134  A    between atoms: _330  and  _333
REMARK  135  A    between atoms: _333  and  _334
REMARK  136  A    between atoms: _337  and  _339
REMARK  137  A    between atoms: _339  and  _340
REMARK  138  A    between atoms: _339  and  _342
REMARK  139  A    between atoms: _342  and  _343
REMARK  140  A    between atoms: _343  and  _344
REMARK  141  A    between atoms: _344  and  _345
REMARK  142  A    between atoms: _345  and  CO_415
REMARK  143  A    between atoms: _347  and  _349
REMARK  144  A    between atoms: _349  and  _350
REMARK  145  A    between atoms: _349  and  _352
REMARK  146  A    between atoms: _352  and  _353
REMARK  147  A    between atoms: _353  and  _354
REMARK  148  A    between atoms: _356  and  _358
REMARK  149  A    between atoms: _358  and  _359
REMARK  150  A    between atoms: _358  and  _361
REMARK  151  A    between atoms: _361  and  _362
REMARK  152  A    between atoms: _372  and  _374
REMARK  153  A    between atoms: _374  and  _375
REMARK  154  A    between atoms: _374  and  _377
REMARK  155  A    between atoms: _377  and  _378
REMARK  156  A    between atoms: _378  and  _379
REMARK  157  A    between atoms: _384  and  _386
REMARK  158  A    between atoms: _386  and  _387
REMARK  159  A    between atoms: _386  and  _389
REMARK  160  A    between atoms: _389  and  _390
REMARK  161  A    between atoms: _396  and  _398
REMARK  162  A    between atoms: _398  and  _399
REMARK  163  A    between atoms: _398  and  _401
REMARK  164  A    between atoms: _401  and  _402
REMARK  165  A    between atoms: _402  and  _403
REMARK  166  A    between atoms: _406  and  _408
REMARK  167  A    between atoms: _408  and  _409
REMARK  168  A    between atoms: _408  and  _411
REMARK  169  A    between atoms: _411  and  _412
REMARK                            x       y       z     vdW  Elec       q    Type
REMARK                         _______ _______ _______ _____ _____    ______ ____
ROOT
ATOM      1  C   CYS A   1      16.899  -6.801   6.667  0.00  0.00    +0.239 C 
ATOM      2  O   CYS A   1      16.141  -7.790   6.845  0.00  0.00    -0.274 OA
ATOM      3  N   HIS A   2      18.230  -6.856   6.717  0.00  0.00    -0.298 N 
ATOM      4  H   HIS A   2      18.747  -5.983   6.487  0.00  0.00    +0.150 HD
ENDROOT
BRANCH   1   5
ATOM      5  CA  CYS A   1      16.350  -5.395   6.431  0.00  0.00    +0.156 C 
BRANCH   5   6
ATOM      6  N   CYS A   1      14.926  -5.460   6.061  0.00  0.00    -0.237 NA
ATOM      7  H   CYS A   1      14.439  -6.377   6.121  0.00  0.00    +0.142 HD
ENDBRANCH   5   6
BRANCH   5   8
ATOM      8  CB  CYS A   1      16.586  -4.475   7.646  0.00  0.00    +0.095 C 
ATOM      9  SG  CYS A   1      15.974  -5.160   9.250  0.00  0.00    -0.080 S 
ENDBRANCH   5   8
ENDBRANCH   1   5
BRANCH   3  10
ATOM     10  CA  HIS A   2      19.029  -8.024   7.063  0.00  0.00    +0.143 C 
BRANCH  10  11
ATOM     11  C   HIS A   2      18.888  -9.153   6.105  0.00  0.00    +0.227 C 
ATOM     12  O   HIS A   2      19.016 -10.318   6.475  0.00  0.00    -0.286 OA
ENDBRANCH  10  11
BRANCH  10  13
ATOM     13  CB  HIS A   2      18.657  -8.489   8.481  0.00  0.00    +0.075 C 
BRANCH  13  14
ATOM     14  CG  HIS A   2      18.849  -7.419   9.499  0.00  0.00    +0.082 A 
ATOM     15  ND1 HIS A   2      18.269  -7.453  10.754  0.00  0.00    -0.227 NA
ATOM     16  CE1 HIS A   2      18.638  -6.371  11.438  0.00  0.00    +0.199 A 
ATOM     17  NE2 HIS A   2      19.410  -5.630  10.659  0.00  0.00    -0.221 NA
ATOM     18  CD2 HIS A   2      19.518  -6.238   9.430  0.00  0.00    +0.115 A 
ENDBRANCH  13  14
ENDBRANCH  10  13
ENDBRANCH   3  10
TORSDOF 7
REMARK  Name = ../refined-set-2016/4u73/4u73_pocket.pdb
REMARK  169 active torsions:
REMARK  status: ('A' for Active; 'I' for Inactive)
REMARK    1  A    between atoms: _1  and  _3
REMARK    2  A    between atoms: _3  and  _4
REMARK    3  A    between atoms: _3  and  _6
REMARK    4  A    between atoms: _6  and  _7
REMARK    5  A    between atoms: _12  and  _13
REMARK    6  A    between atoms: _16  and  _17
REMARK    7  A    between atoms: _22  and  _24
REMARK    8  A    between atoms: _24  and  _25
REMARK    9  A    between atoms: _24  and  _27
REMARK   10  A    between atoms: _27  and  _28
REMARK   11  A    between atoms: _31  and  _32
REMARK   12  A    between atoms: _37  and  _39
REMARK   13  A    between atoms: _39  and  _40
REMARK   14  A    between atoms: _39  and  _42
REMARK   15  A    between atoms: _42  and  _43
REMARK   16  A    between atoms: _46  and  _48
REMARK   17  A    between atoms: _48  and  _49
REMARK   18  A    between atoms: _48  and  _51
REMARK   19  A    between atoms: _51  and  _52
REMARK   20  A    between atoms: _57  and  _59
REMARK   21  A    between atoms: _59  and  _60
REMARK   22  A    between atoms: _59  and  _62
REMARK   23  A    between atoms: _62  and  _63
REMARK   24  A    between atoms: _68  and  _69
REMARK   25  A    between atoms: _71  and  _73
REMARK   26  A    between atoms: _73  and  _74
REMARK   27  A    between atoms: _73  and  _76
REMARK   28  A    between atoms: _76  and  _77
REMARK   29  A    between atoms: _82  and  _83
REMARK   30  A    between atoms: _85  and  _87
REMARK   31  A    between atoms: _87  and  _88
REMARK   32  A    between atoms: _87  and  _90
REMARK   33  A    between atoms: _90  and  _91
REMARK   34  A    between atoms: _97  and  _99
REMARK   35  A    between atoms: _99  and  _100
REMARK   36  A    between atoms: _99  and  _102
REMARK   37  A    between atoms: _102  and  _103
REMARK   38  A    between atoms: _103  and  _104
REMARK   39  A    between atoms: _104  and  _105
REMARK   40  A    between atoms: _105  and  _106
REMARK   41  A    between atoms: _110  and  _112
REMARK   42  A    between atoms: _112  and  _113
REMARK   43  A    between atoms: _112  and  _115
REMARK   44  A    between atoms: _115  and  _116
REMARK   45  A    between atoms: _118  and  _120
REMARK   46  A    between atoms: _120  and  _121
REMARK   47  A    between atoms: _120  and  _123
REMARK   48  A    between atoms: _125  and  _127
REMARK   49  A    between atoms: _127  and  _128
REMARK   50  A    between atoms: _127  and  _130
REMARK   51  A    between atoms: _132  and  _134
REMARK   52  A    between atoms: _134  and  _135
REMARK   53  A    between atoms: _134  and  _137
REMARK   54  A    between atoms: _139  and  _141
REMARK   55  A    between atoms: _141  and  _142
REMARK   56  A    between atoms: _141  and  _144
REMARK   57  A    between atoms: _144  and  _145
REMARK   58  A    between atoms: _150  and  _152
REMARK   59  A    between atoms: _152  and  _153
REMARK   60  A    between atoms: _152  and  _155
REMARK   61  A    between atoms: _155  and  _156
REMARK   62  A    between atoms: _161  and  _163
REMARK   63  A    between atoms: _163  and  _164
REMARK   64  A    between atoms: _163  and  _166
REMARK   65  A    between atoms: _169  and  _171
REMARK   66  A    between atoms: _171  and  _172
REMARK   67  A    between atoms: _171  and  _174
REMARK   68  A    between atoms: _174  and  _175
REMARK   69  A    between atoms: _178  and  _180
REMARK   70  A    between atoms: _180  and  _181
REMARK   71  A    between atoms: _180  and  _183
REMARK   72  A    between atoms: _183  and  _184
REMARK   73  A    between atoms: _187  and  _189
REMARK   74  A    between atoms: _189  and  _190
REMARK   75  A    between atoms: _189  and  _192
REMARK   76  A    between atoms: _192  and  _193
REMARK   77  A    between atoms: _196  and  _198
REMARK   78  A    between atoms: _198  and  _199
REMARK   79  A    between atoms: _198  and  _201
REMARK   80  A    between atoms: _201  and  _202
REMARK   81  A    between atoms: _205  and  _207
REMARK   82  A    between atoms: _207  and  _208
REMARK   83  A    between atoms: _210  and  _212
REMARK   84  A    between atoms: _212  and  _213
REMARK   85  A    between atoms: _212  and  _215
REMARK   86  A    between atoms: _219  and  _221
REMARK   87  A    between atoms: _221  and  _222
REMARK   88  A    between atoms: _221  and  _224
REMARK   89  A    between atoms: _224  and  _225
REMARK   90  A    between atoms: _228  and  _230
REMARK   91  A    between atoms: _230  and  _231
REMARK   92  A    between atoms: _230  and  _233
REMARK   93  A    between atoms: _233  and  _234
REMARK   94  A    between atoms: _239  and  _241
REMARK   95  A    between atoms: _241  and  _242
REMARK   96  A    between atoms: _241  and  _244
REMARK   97  A    between atoms: _244  and  _245
REMARK   98  A    between atoms: _250  and  _251
REMARK   99  A    between atoms: _253  and  _255
REMARK  100  A    between atoms: _255  and  _256
REMARK  101  A    between atoms: _255  and  _258
REMARK  102  A    between atoms: _260  and  _262
REMARK  103  A    between atoms: _262  and  _263
REMARK  104  A    between atoms: _265  and  _267
REMARK  105  A    between atoms: _267  and  _268
REMARK  106  A    between atoms: _267  and  _270
REMARK  107  A    between atoms: _270  and  _271
REMARK  108  A    between atoms: _275  and  CO_415
REMARK  109  A    between atoms: _276  and  _278
REMARK  110  A    between atoms: _278  and  _279
REMARK  111  A    between atoms: _281  and  _283
REMARK  112  A    between atoms: _283  and  _284
REMARK  113  A    between atoms: _283  and  _286
REMARK  114  A    between atoms: _286  and  _287
REMARK  115  A    between atoms: _290  and  _292
REMARK  116  A    between atoms: _292  and  _293
REMARK  117  A    between atoms: _292  and  _295
REMARK  118  A    between atoms: _295  and  _296
REMARK  119  A    between atoms: _296  and  _297
REMARK  120  A    between atoms: _299  and  _301
REMARK  121  A    between atoms: _301  and  _302
REMARK  122  A    between atoms: _301  and  _304
REMARK  123  A    between atoms: _304  and  _305
REMARK  124  A    between atoms: _310  and  _312
REMARK  125  A    between atoms: _312  and  _313
REMARK  126  A    between atoms: _312  and  _315
REMARK  127  A    between atoms: _315  and  _316
REMARK  128  A    between atoms: _319  and  _321
REMARK  129  A    between atoms: _321  and  _322
REMARK  130  A    between atoms: _321  and  _324
REMARK  131  A    between atoms: _324  and  _325
REMARK  132  A    between atoms: _328  and  _330
REMARK  133  A    between atoms: _330  and  _331
REMARK  134  A    between atoms: _330  and  _333
REMARK  135  A    between atoms: _333  and  _334
REMARK  136  A    between atoms: _337  and  _339
REMARK  137  A    between atoms: _339  and  _340
REMARK  138  A    between atoms: _339  and  _342
REMARK  139  A    between atoms: _342  and  _343
REMARK  140  A    between atoms: _343  and  _344
REMARK  141  A    between atoms: _344  and  _345
REMARK  142  A    between atoms: _345  and  CO_415
REMARK  143  A    between atoms: _347  and  _349
REMARK  144  A    between atoms: _349  and  _350
REMARK  145  A    between atoms: _349  and  _352
REMARK  146  A    between atoms: _352  and  _353
REMARK  147  A    between atoms: _353  and  _354
REMARK  148  A    between atoms: _356  and  _358
REMARK  149  A    between atoms: _358  and  _359
REMARK  150  A    between atoms: _358  and  _361
REMARK  151  A    between atoms: _361  and  _362
REMARK  152  A    between atoms: _372  and  _374
REMARK  153  A    between atoms: _374  and  _375
REMARK  154  A    between atoms: _374  and  _377
REMARK  155  A    between atoms: _377  and  _378
REMARK  156  A    between atoms: _378  and  _379
REMARK  157  A    between atoms: _384  and  _386
REMARK  158  A    between atoms: _386  and  _387
REMARK  159  A    between atoms: _386  and  _389
REMARK  160  A    between atoms: _389  and  _390
REMARK  161  A    between atoms: _396  and  _398
REMARK  162  A    between atoms: _398  and  _399
REMARK  163  A    between atoms: _398  and  _401
REMARK  164  A    between atoms: _401  and  _402
REMARK  165  A    between atoms: _402  and  _403
REMARK  166  A    between atoms: _406  and  _408
REMARK  167  A    between atoms: _408  and  _409
REMARK  168  A    between atoms: _408  and  _411
REMARK  169  A    between atoms: _411  and  _412
REMARK                            x       y       z     vdW  Elec       q    Type
REMARK                         _______ _______ _______ _____ _____    ______ ____
ROOT
ATOM      1  C   UNK A   3      23.032  -1.943   6.831  0.00  0.00    +0.000 C 
ATOM      2  O   UNK A   3      22.097  -1.674   7.529  0.00  0.00    +0.000 OA
ATOM      3 CO   UNK A   3      23.416  -0.888   9.121  0.00  0.00    +0.000 Co
ATOM      4  O   UNK A   3      25.126  -0.134   9.696  0.00  0.00    +0.000 OA
ATOM      5  C   UNK A   3      25.346   0.333  10.830  0.00  0.00    +0.000 C 
ATOM      6  O   UNK A   3      24.664   0.061  11.886  0.00  0.00    +0.000 OA
ATOM      7 CO   UNK A   4      22.649   0.054  12.084  0.00  0.00    +0.000 Co
ATOM      8  O   UNK A   3      22.588   1.739  11.008  0.00  0.00    +0.000 OA
ATOM      9  C   UNK A   3      22.518   1.929   9.752  0.00  0.00    +0.000 C 
ATOM     10  C   UNK A   3      26.617   1.177  11.085  0.00  0.00    +0.000 C 
ATOM     11  O   UNK A   3      22.696   1.076   8.898  0.00  0.00    +0.000 OA
ATOM     12  O   UNK A   3      24.138  -1.589   7.133  0.00  0.00    +0.000 OA
ENDROOT
BRANCH   7  13
ATOM     13  N   UNK A   4      22.746   0.315  14.219  0.00  0.00    +0.000 N 
ATOM     14  C   UNK A   4      21.715   0.484  15.075  0.00  0.00    +0.000 A 
ATOM     15  C   UNK A   4      22.267   0.709  16.303  0.00  0.00    +0.000 A 
ATOM     16  N   UNK A   4      23.647   0.674  16.136  0.00  0.00    +0.000 NA
ATOM     17  C   UNK A   4      23.904   0.492  14.848  0.00  0.00    +0.000 A 
BRANCH  15  18
ATOM     18  C   UNK A   4      21.599   0.995  17.613  0.00  0.00    +0.000 C 
BRANCH  18  19
ATOM     19  C   UNK A   4      21.279   2.470  17.777  0.00  0.00    +0.000 C 
BRANCH  19  20
ATOM     20  N   UNK A   4      20.520   2.949  16.656  0.00  0.00    +0.000 N 
ATOM     21  C   UNK A   3      19.234   2.695  16.570  0.00  0.00    +0.000 C 
ATOM     22  O   UNK A   3      18.523   2.255  17.519  0.00  0.00    +0.000 OA
ATOM     23  H   UNK A   4      20.990   3.499  15.909  0.00  0.00    +0.000 HD
BRANCH  21  24
ATOM     24  C   UNK A   3      18.589   2.956  15.230  0.00  0.00    +0.000 C 
BRANCH  24  25
ATOM     25  N   UNK A   3      17.248   2.420  15.385  0.00  0.00    +0.000 N 
ATOM     26  H   UNK A   3      16.456   3.079  15.522  0.00  0.00    +0.000 HD
ATOM     27  C   UNK A   2      16.999   1.106  15.357  0.00  0.00    +0.000 C 
ATOM     28  O   UNK A   2      17.852   0.236  15.047  0.00  0.00    +0.000 OA
BRANCH  27  29
ATOM     29  C   UNK A   2      15.568   0.682  15.744  0.00  0.00    +0.000 C 
BRANCH  29  30
ATOM     30  N   UNK A   2      15.245  -0.653  15.252  0.00  0.00    +0.000 N 
ATOM     31  H   UNK A   2      15.919  -1.414  15.474  0.00  0.00    +0.000 HD
ATOM     32  C   GLY A   1      14.145  -0.994  14.531  0.00  0.00    +0.000 C 
ATOM     33  O   GLY A   1      13.395  -0.196  13.950  0.00  0.00    +0.000 OA
BRANCH  32  34
ATOM     34  CA  GLY A   1      13.934  -2.500  14.359  0.00  0.00    +0.000 C 
BRANCH  34  35
ATOM     35  N   GLY A   1      12.527  -2.841  14.507  0.00  0.00    +0.000 NA
ATOM     36  H   GLY A   1      11.827  -2.345  13.920  0.00  0.00    +0.000 HD
ENDBRANCH  34  35
BRANCH  34  37
ATOM     37  CB  GLY A   1      14.437  -2.936  12.909  0.00  0.00    +0.000 C 
BRANCH  37  38
ATOM     38  CG  GLY A   1      14.370  -4.436  12.723  0.00  0.00    +0.000 A 
ATOM     39  CD2 GLY A   1      15.371  -5.266  13.240  0.00  0.00    +0.000 A 
ATOM     40  CE2 GLY A   1      15.306  -6.652  13.150  0.00  0.00    +0.000 A 
ATOM     41  CZ  GLY A   1      14.234  -7.205  12.457  0.00  0.00    +0.000 A 
ATOM     42  CE1 GLY A   1      13.203  -6.401  12.022  0.00  0.00    +0.000 A 
ATOM     43  CD1 GLY A   1      13.292  -5.024  12.109  0.00  0.00    +0.000 A 
BRANCH  41  44
ATOM     44  OH  GLY A   1      14.030  -8.574  12.334  0.00  0.00    +0.000 OA
ATOM     45  HH  GLY A   1      14.825  -9.057  12.673  0.00  0.00    +0.000 HD
ENDBRANCH  41  44
ENDBRANCH  37  38
ENDBRANCH  34  37
ENDBRANCH  32  34
ENDBRANCH  29  30
BRANCH  29  46
ATOM     46  C   UNK A   2      15.457   0.669  17.300  0.00  0.00    +0.000 C 
ATOM     47  S   UNK A   2      13.708   0.382  17.722  0.00  0.00    +0.000 S 
ENDBRANCH  29  46
ENDBRANCH  27  29
ENDBRANCH  24  25
ENDBRANCH  21  24
ENDBRANCH  19  20
BRANCH  19  48
ATOM     48  C   UNK A   4      22.554   3.210  18.002  0.00  0.00    +0.000 C 
ATOM     49  N   THR A   5      22.942   3.285  19.272  0.00  0.00    +0.000 N 
ATOM     50  H   THR A   5      22.289   3.086  20.056  0.00  0.00    +0.000 HD
ATOM     51  O   UNK A   4      23.240   3.659  17.104  0.00  0.00    +0.000 OA
BRANCH  49  52
ATOM     52  CA  THR A   5      24.301   3.652  19.502  0.00  0.00    +0.000 C 
BRANCH  52  53
ATOM     53  C   THR A   5      25.276   2.678  18.825  0.00  0.00    +0.000 C 
ATOM     54  O   THR A   5      25.016   1.454  18.586  0.00  0.00    +0.000 OA
ATOM     55  N   LEU A   6      26.423   3.208  18.544  0.00  0.00    +0.000 N 
ATOM     56  H   LEU A   6      26.596   4.203  18.792  0.00  0.00    +0.000 HD
BRANCH  55  57
ATOM     57  CA  LEU A   6      27.467   2.455  17.896  0.00  0.00    +0.000 C 
BRANCH  57  58
ATOM     58  C   LEU A   6      28.789   3.118  18.211  0.00  0.00    +0.000 C 
ATOM     59  O   LEU A   6      28.921   4.332  18.068  0.00  0.00    +0.000 OA
ENDBRANCH  57  58
BRANCH  57  60
ATOM     60  CB  LEU A   6      27.239   2.358  16.341  0.00  0.00    +0.000 C 
ATOM     61  CG2 LEU A   6      26.979   3.689  15.705  0.00  0.00    +0.000 C 
BRANCH  60  62
ATOM     62  CG1 LEU A   6      28.344   1.562  15.665  0.00  0.00    +0.000 C 
ATOM     63  CD1 LEU A   6      28.052   1.196  14.222  0.00  0.00    +0.000 C 
ENDBRANCH  60  62
ENDBRANCH  57  60
ENDBRANCH  55  57
ENDBRANCH  52  53
ENDBRANCH  49  52
ENDBRANCH  19  48
ENDBRANCH  18  19
ENDBRANCH  15  18
ENDBRANCH   7  13
BRANCH   1  64
ATOM     64  C   UNK A   3      22.834  -2.618   5.463  0.00  0.00    +0.000 C 
BRANCH  64  65
ATOM     65  C   UNK A   3      23.894  -2.195   4.446  0.00  0.00    +0.000 C 
BRANCH  65  66
ATOM     66  C   UNK A   3      25.339  -2.697   4.718  0.00  0.00    +0.000 C 
ATOM     67  N   UNK A   4      26.184  -1.711   4.965  0.00  0.00    +0.000 N 
ATOM     68  H   UNK A   4      25.802  -0.744   4.993  0.00  0.00    +0.000 HD
ATOM     69  O   UNK A   3      25.646  -3.881   4.619  0.00  0.00    +0.000 OA
BRANCH  67  70
ATOM     70  C   UNK A   4      27.577  -1.877   5.195  0.00  0.00    +0.000 C 
BRANCH  70  71
ATOM     71  C   UNK A   4      27.912  -1.549   6.624  0.00  0.00    +0.000 C 
ATOM     72  N   THR A   5      28.676  -2.401   7.253  0.00  0.00    +0.000 N 
ATOM     73  H   THR A   5      28.908  -3.314   6.812  0.00  0.00    +0.000 HD
ATOM     74  O   UNK A   4      27.582  -0.454   7.139  0.00  0.00    +0.000 OA
BRANCH  72  75
ATOM     75  CA  THR A   5      29.207  -2.074   8.577  0.00  0.00    +0.000 C 
BRANCH  75  76
ATOM     76  C   THR A   5      30.659  -2.576   8.614  0.00  0.00    +0.000 C 
ATOM     77  N   LEU A   6      31.589  -1.707   8.999  0.00  0.00    +0.000 N 
ATOM     78  H   LEU A   6      31.288  -0.747   9.262  0.00  0.00    +0.000 HD
ATOM     79  O   THR A   5      30.955  -3.763   8.298  0.00  0.00    +0.000 OA
BRANCH  77  80
ATOM     80  CA  LEU A   6      33.061  -2.041   9.075  0.00  0.00    +0.000 C 
BRANCH  80  81
ATOM     81  C   LEU A   6      33.567  -1.882  10.496  0.00  0.00    +0.000 C 
ATOM     82  O   LEU A   6      33.038  -1.097  11.242  0.00  0.00    +0.000 OA
ENDBRANCH  80  81
BRANCH  80  83
ATOM     83  CB  LEU A   6      33.893  -1.090   8.214  0.00  0.00    +0.000 C 
BRANCH  83  84
ATOM     84  CG  LEU A   6      34.005  -1.446   6.717  0.00  0.00    +0.000 C 
ATOM     85  CD2 LEU A   6      32.749  -1.742   6.007  0.00  0.00    +0.000 C 
ATOM     86  CD1 LEU A   6      34.872  -0.473   5.947  0.00  0.00    +0.000 C 
ENDBRANCH  83  84
ENDBRANCH  80  83
ENDBRANCH  77  80
ENDBRANCH  75  76
BRANCH  75  87
ATOM     87  CB  THR A   5      28.294  -2.728   9.664  0.00  0.00    +0.000 C 
ATOM     88  CG2 THR A   5      28.686  -2.213  10.999  0.00  0.00    +0.000 C 
BRANCH  87  89
ATOM     89  OG1 THR A   5      26.927  -2.450   9.454  0.00  0.00    +0.000 OA
ATOM     90  HG1 THR A   5      26.783  -1.471   9.481  0.00  0.00    +0.000 HD
ENDBRANCH  87  89
ENDBRANCH  75  87
ENDBRANCH  72  75
ENDBRANCH  70  71
BRANCH  70  91
ATOM     91  C   UNK A   4      28.355  -0.958   4.291  0.00  0.00    +0.000 C 
ATOM     92  C   UNK A   4      29.815  -0.936   4.566  0.00  0.00    +0.000 C 
BRANCH  91  93
ATOM     93  C   UNK A   4      28.220  -1.280   2.783  0.00  0.00    +0.000 C 
ATOM     94  C   UNK A   4      28.409  -2.755   2.375  0.00  0.00    +0.000 C 
ENDBRANCH  91  93
ENDBRANCH  70  91
ENDBRANCH  67  70
ENDBRANCH  65  66
BRANCH  65  96
ATOM     95  C   UNK A   2      23.284  -1.868   2.071  0.00  0.00    +0.000 C 
ATOM     96  N   UNK A   3      23.495  -2.681   3.102  0.00  0.00    +0.000 N 
ATOM     97  H   UNK A   3      23.375  -3.704   2.960  0.00  0.00    +0.000 HD
ATOM     98  O   UNK A   2      23.431  -0.627   2.128  0.00  0.00    +0.000 OA
BRANCH  95  99
ATOM     99  C   UNK A   2      22.905  -2.573   0.792  0.00  0.00    +0.000 C 
BRANCH  99 102
ATOM    100  C   GLY A   1      20.546  -2.695   0.252  0.00  0.00    +0.000 C 
ATOM    101  O   GLY A   1      20.445  -3.938   0.375  0.00  0.00    +0.000 OA
ATOM    102  N   UNK A   2      21.700  -2.011   0.280  0.00  0.00    +0.000 N 
ATOM    103  H   UNK A   2      21.715  -1.037  -0.085  0.00  0.00    +0.000 HD
BRANCH 100 104
ATOM    104  CA  GLY A   1      19.287  -1.844   0.031  0.00  0.00    +0.000 C 
BRANCH 104 105
ATOM    105  N   GLY A   1      18.485  -2.480  -0.989  0.00  0.00    +0.000 NA
ATOM    106  H   GLY A   1      17.840  -3.242  -0.697  0.00  0.00    +0.000 HD
ENDBRANCH 104 105
BRANCH 104 107
ATOM    107  CB  GLY A   1      18.477  -1.708   1.287  0.00  0.00    +0.000 C 
BRANCH 107 108
ATOM    108  CG  GLY A   1      19.218  -0.969   2.377  0.00  0.00    +0.000 C 
ATOM    109  OD1 GLY A   1      20.070  -1.574   3.047  0.00  0.00    +0.000 OA
ATOM    110  ND2 GLY A   1      18.849   0.296   2.605  0.00  0.00    +0.000 N 
ATOM    111 HD21 GLY A   1      19.283   0.832   3.383  0.00  0.00    +0.000 HD
ATOM    112 HD22 GLY A   1      18.128   0.744   2.004  0.00  0.00    +0.000 HD
ENDBRANCH 107 108
ENDBRANCH 104 107
ENDBRANCH 100 104
ENDBRANCH  99 102
BRANCH  99 113
ATOM    113  C   UNK A   2      24.038  -2.519  -0.242  0.00  0.00    +0.000 C 
ATOM    114  C   UNK A   2      25.324  -3.157   0.295  0.00  0.00    +0.000 C 
ATOM    115  C   UNK A   2      23.609  -3.143  -1.579  0.00  0.00    +0.000 C 
ENDBRANCH  99 113
ENDBRANCH  95  99
ENDBRANCH  65  96
ENDBRANCH  64  65
ENDBRANCH   1  64
BRANCH   7 116
ATOM    116  O   UNK A   3      20.415   0.738  12.370  0.00  0.00    +0.000 OA
BRANCH 116 117
ATOM    117  C   UNK A   3      19.676   0.858  11.349  0.00  0.00    +0.000 C 
ATOM    118  O   UNK A   3      19.865   0.155  10.328  0.00  0.00    +0.000 OA
BRANCH 117 119
ATOM    119  C   UNK A   3      18.653   1.951  11.326  0.00  0.00    +0.000 C 
BRANCH 119 120
ATOM    120  C   UNK A   3      18.819   2.821  10.115  0.00  0.00    +0.000 C 
BRANCH 120 121
ATOM    121  C   UNK A   3      17.883   4.022   9.968  0.00  0.00    +0.000 C 
BRANCH 121 122
ATOM    122  N   UNK A   3      18.015   4.921  11.124  0.00  0.00    +0.000 N 
ATOM    123  H   UNK A   3      17.361   4.821  11.926  0.00  0.00    +0.000 HD
ATOM    124  C   UNK A   2      18.955   5.858  11.162  0.00  0.00    +0.000 C 
ATOM    125  O   UNK A   2      19.760   6.001  10.269  0.00  0.00    +0.000 OA
BRANCH 124 126
ATOM    126  C   UNK A   2      19.136   6.608  12.501  0.00  0.00    +0.000 C 
BRANCH 126 127
ATOM    127  N   UNK A   2      20.547   6.518  12.802  0.00  0.00    +0.000 N 
ATOM    128  C   GLY A   1      21.025   6.078  13.950  0.00  0.00    +0.000 C 
ATOM    129  O   GLY A   1      20.331   5.902  14.958  0.00  0.00    +0.000 OA
ATOM    130  H   UNK A   2      21.224   6.817  12.072  0.00  0.00    +0.000 HD
BRANCH 128 131
ATOM    131  CA  GLY A   1      22.438   5.725  13.921  0.00  0.00    +0.000 C 
BRANCH 131 132
ATOM    132  N   GLY A   1      23.089   5.719  15.235  0.00  0.00    +0.000 NA
ATOM    133  H   GLY A   1      22.945   4.910  15.873  0.00  0.00    +0.000 HD
ENDBRANCH 131 132
BRANCH 131 134
ATOM    134  CB  GLY A   1      22.594   4.341  13.257  0.00  0.00    +0.000 C 
ATOM    135  CG2 GLY A   1      24.009   3.799  13.410  0.00  0.00    +0.000 C 
BRANCH 134 136
ATOM    136  OG1 GLY A   1      21.626   3.403  13.789  0.00  0.00    +0.000 OA
ATOM    137  HG1 GLY A   1      21.744   2.524  13.350  0.00  0.00    +0.000 HD
ENDBRANCH 134 136
ENDBRANCH 131 134
ENDBRANCH 128 131
ENDBRANCH 126 127
BRANCH 126 138
ATOM    138  C   UNK A   2      18.672   8.097  12.326  0.00  0.00    +0.000 C 
ATOM    139  C   UNK A   2      17.158   8.221  12.123  0.00  0.00    +0.000 C 
BRANCH 138 140
ATOM    140  C   UNK A   2      19.122   8.946  13.516  0.00  0.00    +0.000 C 
ATOM    141  C   UNK A   2      18.689  10.390  13.335  0.00  0.00    +0.000 C 
ENDBRANCH 138 140
ENDBRANCH 126 138
ENDBRANCH 124 126
ENDBRANCH 121 122
BRANCH 121 142
ATOM    142  C   UNK A   3      16.448   3.601   9.641  0.00  0.00    +0.000 C 
ATOM    143  O   UNK A   3      16.098   2.422   9.759  0.00  0.00    +0.000 OA
ENDBRANCH 121 142
ENDBRANCH 120 121
ENDBRANCH 119 120
ENDBRANCH 117 119
ENDBRANCH 116 117
ENDBRANCH   7 116
BRANCH  10 144
ATOM    144  C   UNK A   3      27.392   1.641   9.848  0.00  0.00    +0.000 C 
BRANCH 144 145
ATOM    145  C   UNK A   3      26.570   2.611   8.978  0.00  0.00    +0.000 C 
ATOM    146  O   UNK A   3      26.181   3.695   9.403  0.00  0.00    +0.000 OA
ATOM    147  N   UNK A   3      26.281   2.168   7.742  0.00  0.00    +0.000 N 
ATOM    148  H   UNK A   3      26.693   1.274   7.407  0.00  0.00    +0.000 HD
BRANCH 147 149
ATOM    149  C   UNK A   3      25.399   2.924   6.867  0.00  0.00    +0.000 C 
BRANCH 149 150
ATOM    150  C   UNK A   3      24.685   2.030   5.840  0.00  0.00    +0.000 C 
ATOM    151  O   UNK A   3      25.093   0.905   5.565  0.00  0.00    +0.000 OA
ATOM    152  N   UNK A   4      23.628   2.577   5.272  0.00  0.00    +0.000 N 
ATOM    153  H   UNK A   4      23.269   3.489   5.619  0.00  0.00    +0.000 HD
BRANCH 152 154
ATOM    154  C   UNK A   4      22.965   1.916   4.168  0.00  0.00    +0.000 C 
BRANCH 154 155
ATOM    155  C   UNK A   4      22.283   2.817   3.264  0.00  0.00    +0.000 C 
ATOM    156  O   UNK A   4      21.893   3.945   3.626  0.00  0.00    +0.000 OA
ENDBRANCH 154 155
BRANCH 154 157
ATOM    157  C   UNK A   4      22.085   0.712   4.658  0.00  0.00    +0.000 C 
BRANCH 157 158
ATOM    158  C   UNK A   4      20.754   1.091   5.252  0.00  0.00    +0.000 C 
ATOM    159  N   UNK A   4      20.512   0.560   6.497  0.00  0.00    +0.000 N 
ATOM    160  H   UNK A   4      19.637   0.802   7.004  0.00  0.00    +0.000 HD
ATOM    161  H   UNK A   4      21.204  -0.083   6.932  0.00  0.00    +0.000 HD
ATOM    162  O   UNK A   4      19.968   1.839   4.726  0.00  0.00    +0.000 OA
ENDBRANCH 157 158
ENDBRANCH 154 157
ENDBRANCH 152 154
ENDBRANCH 149 150
BRANCH 149 163
ATOM    163  C   UNK A   3      26.142   3.985   6.069  0.00  0.00    +0.000 C 
BRANCH 163 164
ATOM    164  C   UNK A   3      27.022   3.631   4.860  0.00  0.00    +0.000 C 
ATOM    165  C   UNK A   3      28.367   3.032   5.374  0.00  0.00    +0.000 C 
ATOM    166  C   UNK A   3      27.269   4.812   3.957  0.00  0.00    +0.000 C 
ENDBRANCH 163 164
ENDBRANCH 149 163
ENDBRANCH 147 149
ENDBRANCH 144 145
BRANCH 144 167
ATOM    167  N   UNK A   3      28.616   2.343  10.322  0.00  0.00    +0.000 N 
ATOM    168  H   UNK A   3      28.549   3.345  10.592  0.00  0.00    +0.000 HD
ATOM    169  C   GLY A   1      29.804   1.723  10.412  0.00  0.00    +0.000 C 
ATOM    170  O   GLY A   1      30.098   0.653   9.823  0.00  0.00    +0.000 OA
BRANCH 169 171
ATOM    171  CA  GLY A   1      30.829   2.347  11.350  0.00  0.00    +0.000 C 
BRANCH 171 172
ATOM    172  N   GLY A   1      31.474   1.293  12.006  0.00  0.00    +0.000 NA
ATOM    173  H   GLY A   1      31.777   0.458  11.464  0.00  0.00    +0.000 HD
ENDBRANCH 171 172
ENDBRANCH 169 171
ENDBRANCH 144 167
ENDBRANCH  10 144
BRANCH   9 174
ATOM    174  C   UNK A   3      22.230   3.302   9.228  0.00  0.00    +0.000 C 
BRANCH 174 175
ATOM    175  C   UNK A   3      21.438   3.344   7.936  0.00  0.00    +0.000 C 
BRANCH 175 176
ATOM    176  C   UNK A   3      21.055   4.755   7.509  0.00  0.00    +0.000 C 
BRANCH 176 177
ATOM    177  N   UNK A   3      20.370   4.728   6.209  0.00  0.00    +0.000 N 
ATOM    178  C   UNK A   2      19.046   4.654   6.098  0.00  0.00    +0.000 C 
ATOM    179  O   UNK A   2      18.271   4.717   7.008  0.00  0.00    +0.000 OA
ATOM    180  H   UNK A   3      20.943   4.768   5.342  0.00  0.00    +0.000 HD
BRANCH 178 181
ATOM    181  C   UNK A   2      18.507   4.623   4.674  0.00  0.00    +0.000 C 
BRANCH 181 182
ATOM    182  N   UNK A   2      17.215   3.963   4.782  0.00  0.00    +0.000 N 
ATOM    183  H   UNK A   2      16.579   4.235   5.558  0.00  0.00    +0.000 HD
ATOM    184  C   GLY A   1      16.808   3.011   3.915  0.00  0.00    +0.000 C 
ATOM    185  O   GLY A   1      17.414   2.757   2.830  0.00  0.00    +0.000 OA
BRANCH 184 186
ATOM    186  CA  GLY A   1      15.620   2.090   4.354  0.00  0.00    +0.000 C 
BRANCH 186 187
ATOM    187  N   GLY A   1      14.844   1.674   3.169  0.00  0.00    +0.000 NA
ATOM    188  H   GLY A   1      15.347   1.499   2.276  0.00  0.00    +0.000 HD
ENDBRANCH 186 187
BRANCH 186 189
ATOM    189  CB  GLY A   1      16.147   0.808   5.038  0.00  0.00    +0.000 C 
BRANCH 189 190
ATOM    190  CG  GLY A   1      16.945   1.201   6.299  0.00  0.00    +0.000 C 
BRANCH 190 191
ATOM    191  CD  GLY A   1      17.310  -0.018   7.065  0.00  0.00    +0.000 C 
ATOM    192  NE2 GLY A   1      17.245   0.081   8.374  0.00  0.00    +0.000 N 
ATOM    193 HE21 GLY A   1      17.508  -0.729   8.970  0.00  0.00    +0.000 HD
ATOM    194 HE22 GLY A   1      16.931   0.970   8.813  0.00  0.00    +0.000 HD
ATOM    195  OE1 GLY A   1      17.687  -1.082   6.503  0.00  0.00    +0.000 OA
ENDBRANCH 190 191
ENDBRANCH 189 190
ENDBRANCH 186 189
ENDBRANCH 184 186
ENDBRANCH 181 182
BRANCH 181 196
ATOM    196  C   UNK A   2      18.413   6.013   4.110  0.00  0.00    +0.000 C 
BRANCH 196 197
ATOM    197  C   UNK A   2      18.143   6.017   2.623  0.00  0.00    +0.000 A 
ATOM    198  C   UNK A   2      16.859   5.906   2.133  0.00  0.00    +0.000 A 
ATOM    199  C   UNK A   2      16.622   5.818   0.778  0.00  0.00    +0.000 A 
ATOM    200  C   UNK A   2      17.624   5.924  -0.152  0.00  0.00    +0.000 A 
ATOM    201  C   UNK A   2      18.917   6.037   0.328  0.00  0.00    +0.000 A 
ATOM    202  C   UNK A   2      19.171   6.076   1.695  0.00  0.00    +0.000 A 
ENDBRANCH 196 197
ENDBRANCH 181 196
ENDBRANCH 178 181
ENDBRANCH 176 177
BRANCH 176 203
ATOM    203  C   UNK A   3      22.324   5.616   7.372  0.00  0.00    +0.000 C 
ATOM    204  O   UNK A   3      23.094   5.470   6.429  0.00  0.00    +0.000 OA
ENDBRANCH 176 203
ENDBRANCH 175 176
ENDBRANCH 174 175
ENDBRANCH   9 174
TORSDOF 86
REMARK  Name = ../refined-set-2016/4u73/4u73_pocket.pdb
REMARK  169 active torsions:
REMARK  status: ('A' for Active; 'I' for Inactive)
REMARK    1  A    between atoms: _1  and  _3
REMARK    2  A    between atoms: _3  and  _4
REMARK    3  A    between atoms: _3  and  _6
REMARK    4  A    between atoms: _6  and  _7
REMARK    5  A    between atoms: _12  and  _13
REMARK    6  A    between atoms: _16  and  _17
REMARK    7  A    between atoms: _22  and  _24
REMARK    8  A    between atoms: _24  and  _25
REMARK    9  A    between atoms: _24  and  _27
REMARK   10  A    between atoms: _27  and  _28
REMARK   11  A    between atoms: _31  and  _32
REMARK   12  A    between atoms: _37  and  _39
REMARK   13  A    between atoms: _39  and  _40
REMARK   14  A    between atoms: _39  and  _42
REMARK   15  A    between atoms: _42  and  _43
REMARK   16  A    between atoms: _46  and  _48
REMARK   17  A    between atoms: _48  and  _49
REMARK   18  A    between atoms: _48  and  _51
REMARK   19  A    between atoms: _51  and  _52
REMARK   20  A    between atoms: _57  and  _59
REMARK   21  A    between atoms: _59  and  _60
REMARK   22  A    between atoms: _59  and  _62
REMARK   23  A    between atoms: _62  and  _63
REMARK   24  A    between atoms: _68  and  _69
REMARK   25  A    between atoms: _71  and  _73
REMARK   26  A    between atoms: _73  and  _74
REMARK   27  A    between atoms: _73  and  _76
REMARK   28  A    between atoms: _76  and  _77
REMARK   29  A    between atoms: _82  and  _83
REMARK   30  A    between atoms: _85  and  _87
REMARK   31  A    between atoms: _87  and  _88
REMARK   32  A    between atoms: _87  and  _90
REMARK   33  A    between atoms: _90  and  _91
REMARK   34  A    between atoms: _97  and  _99
REMARK   35  A    between atoms: _99  and  _100
REMARK   36  A    between atoms: _99  and  _102
REMARK   37  A    between atoms: _102  and  _103
REMARK   38  A    between atoms: _103  and  _104
REMARK   39  A    between atoms: _104  and  _105
REMARK   40  A    between atoms: _105  and  _106
REMARK   41  A    between atoms: _110  and  _112
REMARK   42  A    between atoms: _112  and  _113
REMARK   43  A    between atoms: _112  and  _115
REMARK   44  A    between atoms: _115  and  _116
REMARK   45  A    between atoms: _118  and  _120
REMARK   46  A    between atoms: _120  and  _121
REMARK   47  A    between atoms: _120  and  _123
REMARK   48  A    between atoms: _125  and  _127
REMARK   49  A    between atoms: _127  and  _128
REMARK   50  A    between atoms: _127  and  _130
REMARK   51  A    between atoms: _132  and  _134
REMARK   52  A    between atoms: _134  and  _135
REMARK   53  A    between atoms: _134  and  _137
REMARK   54  A    between atoms: _139  and  _141
REMARK   55  A    between atoms: _141  and  _142
REMARK   56  A    between atoms: _141  and  _144
REMARK   57  A    between atoms: _144  and  _145
REMARK   58  A    between atoms: _150  and  _152
REMARK   59  A    between atoms: _152  and  _153
REMARK   60  A    between atoms: _152  and  _155
REMARK   61  A    between atoms: _155  and  _156
REMARK   62  A    between atoms: _161  and  _163
REMARK   63  A    between atoms: _163  and  _164
REMARK   64  A    between atoms: _163  and  _166
REMARK   65  A    between atoms: _169  and  _171
REMARK   66  A    between atoms: _171  and  _172
REMARK   67  A    between atoms: _171  and  _174
REMARK   68  A    between atoms: _174  and  _175
REMARK   69  A    between atoms: _178  and  _180
REMARK   70  A    between atoms: _180  and  _181
REMARK   71  A    between atoms: _180  and  _183
REMARK   72  A    between atoms: _183  and  _184
REMARK   73  A    between atoms: _187  and  _189
REMARK   74  A    between atoms: _189  and  _190
REMARK   75  A    between atoms: _189  and  _192
REMARK   76  A    between atoms: _192  and  _193
REMARK   77  A    between atoms: _196  and  _198
REMARK   78  A    between atoms: _198  and  _199
REMARK   79  A    between atoms: _198  and  _201
REMARK   80  A    between atoms: _201  and  _202
REMARK   81  A    between atoms: _205  and  _207
REMARK   82  A    between atoms: _207  and  _208
REMARK   83  A    between atoms: _210  and  _212
REMARK   84  A    between atoms: _212  and  _213
REMARK   85  A    between atoms: _212  and  _215
REMARK   86  A    between atoms: _219  and  _221
REMARK   87  A    between atoms: _221  and  _222
REMARK   88  A    between atoms: _221  and  _224
REMARK   89  A    between atoms: _224  and  _225
REMARK   90  A    between atoms: _228  and  _230
REMARK   91  A    between atoms: _230  and  _231
REMARK   92  A    between atoms: _230  and  _233
REMARK   93  A    between atoms: _233  and  _234
REMARK   94  A    between atoms: _239  and  _241
REMARK   95  A    between atoms: _241  and  _242
REMARK   96  A    between atoms: _241  and  _244
REMARK   97  A    between atoms: _244  and  _245
REMARK   98  A    between atoms: _250  and  _251
REMARK   99  A    between atoms: _253  and  _255
REMARK  100  A    between atoms: _255  and  _256
REMARK  101  A    between atoms: _255  and  _258
REMARK  102  A    between atoms: _260  and  _262
REMARK  103  A    between atoms: _262  and  _263
REMARK  104  A    between atoms: _265  and  _267
REMARK  105  A    between atoms: _267  and  _268
REMARK  106  A    between atoms: _267  and  _270
REMARK  107  A    between atoms: _270  and  _271
REMARK  108  A    between atoms: _275  and  CO_415
REMARK  109  A    between atoms: _276  and  _278
REMARK  110  A    between atoms: _278  and  _279
REMARK  111  A    between atoms: _281  and  _283
REMARK  112  A    between atoms: _283  and  _284
REMARK  113  A    between atoms: _283  and  _286
REMARK  114  A    between atoms: _286  and  _287
REMARK  115  A    between atoms: _290  and  _292
REMARK  116  A    between atoms: _292  and  _293
REMARK  117  A    between atoms: _292  and  _295
REMARK  118  A    between atoms: _295  and  _296
REMARK  119  A    between atoms: _296  and  _297
REMARK  120  A    between atoms: _299  and  _301
REMARK  121  A    between atoms: _301  and  _302
REMARK  122  A    between atoms: _301  and  _304
REMARK  123  A    between atoms: _304  and  _305
REMARK  124  A    between atoms: _310  and  _312
REMARK  125  A    between atoms: _312  and  _313
REMARK  126  A    between atoms: _312  and  _315
REMARK  127  A    between atoms: _315  and  _316
REMARK  128  A    between atoms: _319  and  _321
REMARK  129  A    between atoms: _321  and  _322
REMARK  130  A    between atoms: _321  and  _324
REMARK  131  A    between atoms: _324  and  _325
REMARK  132  A    between atoms: _328  and  _330
REMARK  133  A    between atoms: _330  and  _331
REMARK  134  A    between atoms: _330  and  _333
REMARK  135  A    between atoms: _333  and  _334
REMARK  136  A    between atoms: _337  and  _339
REMARK  137  A    between atoms: _339  and  _340
REMARK  138  A    between atoms: _339  and  _342
REMARK  139  A    between atoms: _342  and  _343
REMARK  140  A    between atoms: _343  and  _344
REMARK  141  A    between atoms: _344  and  _345
REMARK  142  A    between atoms: _345  and  CO_415
REMARK  143  A    between atoms: _347  and  _349
REMARK  144  A    between atoms: _349  and  _350
REMARK  145  A    between atoms: _349  and  _352
REMARK  146  A    between atoms: _352  and  _353
REMARK  147  A    between atoms: _353  and  _354
REMARK  148  A    between atoms: _356  and  _358
REMARK  149  A    between atoms: _358  and  _359
REMARK  150  A    between atoms: _358  and  _361
REMARK  151  A    between atoms: _361  and  _362
REMARK  152  A    between atoms: _372  and  _374
REMARK  153  A    between atoms: _374  and  _375
REMARK  154  A    between atoms: _374  and  _377
REMARK  155  A    between atoms: _377  and  _378
REMARK  156  A    between atoms: _378  and  _379
REMARK  157  A    between atoms: _384  and  _386
REMARK  158  A    between atoms: _386  and  _387
REMARK  159  A    between atoms: _386  and  _389
REMARK  160  A    between atoms: _389  and  _390
REMARK  161  A    between atoms: _396  and  _398
REMARK  162  A    between atoms: _398  and  _399
REMARK  163  A    between atoms: _398  and  _401
REMARK  164  A    between atoms: _401  and  _402
REMARK  165  A    between atoms: _402  and  _403
REMARK  166  A    between atoms: _406  and  _408
REMARK  167  A    between atoms: _408  and  _409
REMARK  168  A    between atoms: _408  and  _411
REMARK  169  A    between atoms: _411  and  _412
REMARK                            x       y       z     vdW  Elec       q    Type
REMARK                         _______ _______ _______ _____ _____    ______ ____
ROOT
ATOM      1  CA  HIS A   2      24.719  -2.134  18.845  0.00  0.00    +0.155 C 
ENDROOT
BRANCH   1   3
ATOM      2  C   MET A   1      26.652  -1.951  17.376  0.00  0.00    +0.238 C 
ATOM      3  N   HIS A   2      26.021  -2.553  18.398  0.00  0.00    -0.297 N 
ATOM      4  H   HIS A   2      26.488  -3.347  18.881  0.00  0.00    +0.150 HD
ATOM      5  O   MET A   1      26.141  -1.066  16.665  0.00  0.00    -0.274 OA
BRANCH   2   6
ATOM      6  CA  MET A   1      28.015  -2.481  17.051  0.00  0.00    +0.146 C 
BRANCH   6   7
ATOM      7  N   MET A   1      28.790  -2.751  18.261  0.00  0.00    -0.238 NA
ATOM      8  H   MET A   1      28.955  -3.722  18.594  0.00  0.00    +0.142 HD
ENDBRANCH   6   7
BRANCH   6   9
ATOM      9  CB  MET A   1      27.864  -3.726  16.173  0.00  0.00    +0.038 C 
BRANCH   9  10
ATOM     10  CG  MET A   1      27.476  -3.279  14.745  0.00  0.00    +0.060 C 
BRANCH  10  11
ATOM     11  SD  MET A   1      26.811  -4.662  13.814  0.00  0.00    -0.139 S 
ATOM     12  CE  MET A   1      28.157  -5.747  13.847  0.00  0.00    +0.069 C 
ENDBRANCH  10  11
ENDBRANCH   9  10
ENDBRANCH   6   9
ENDBRANCH   2   6
ENDBRANCH   1   3
BRANCH   1  13
ATOM     13  C   HIS A   2      24.816  -1.840  20.331  0.00  0.00    +0.241 C 
ATOM     14  O   HIS A   2      25.105  -2.760  21.104  0.00  0.00    -0.273 OA
ATOM     15  N   THR A   3      24.501  -0.613  20.683  0.00  0.00    -0.296 N 
ATOM     16  H   THR A   3      24.300   0.111  19.964  0.00  0.00    +0.150 HD
BRANCH  15  17
ATOM     17  CA  THR A   3      24.439  -0.289  22.100  0.00  0.00    +0.164 C 
BRANCH  17  18
ATOM     18  CB  THR A   3      25.900  -0.067  22.618  0.00  0.00    +0.136 C 
ATOM     19  CG2 THR A   3      26.508   1.165  22.037  0.00  0.00    +0.034 C 
BRANCH  18  20
ATOM     20  OG1 THR A   3      25.861   0.027  24.054  0.00  0.00    -0.382 OA
ATOM     21  HG1 THR A   3      25.491  -0.811  24.429  0.00  0.00    +0.210 HD
ENDBRANCH  18  20
ENDBRANCH  17  18
BRANCH  17  22
ATOM     22  C   THR A   3      23.531   0.906  22.349  0.00  0.00    +0.229 C 
ATOM     23  O   THR A   3      22.860   1.410  21.427  0.00  0.00    -0.286 OA
ENDBRANCH  17  22
ENDBRANCH  15  17
ENDBRANCH   1  13
BRANCH   1  24
ATOM     24  CB  HIS A   2      23.714  -3.189  18.636  0.00  0.00    +0.076 C 
BRANCH  24  25
ATOM     25  CG  HIS A   2      23.420  -3.398  17.178  0.00  0.00    +0.082 A 
ATOM     26  ND1 HIS A   2      23.592  -4.596  16.546  0.00  0.00    -0.227 NA
ATOM     27  CE1 HIS A   2      23.328  -4.452  15.253  0.00  0.00    +0.199 A 
ATOM     28  NE2 HIS A   2      22.984  -3.202  15.036  0.00  0.00    -0.221 NA
ATOM     29  CD2 HIS A   2      23.085  -2.517  16.222  0.00  0.00    +0.115 A 
ENDBRANCH  24  25
ENDBRANCH   1  24
TORSDOF 13
REMARK  Name = ../refined-set-2016/4u73/4u73_pocket.pdb
REMARK  169 active torsions:
REMARK  status: ('A' for Active; 'I' for Inactive)
REMARK    1  A    between atoms: _1  and  _3
REMARK    2  A    between atoms: _3  and  _4
REMARK    3  A    between atoms: _3  and  _6
REMARK    4  A    between atoms: _6  and  _7
REMARK    5  A    between atoms: _12  and  _13
REMARK    6  A    between atoms: _16  and  _17
REMARK    7  A    between atoms: _22  and  _24
REMARK    8  A    between atoms: _24  and  _25
REMARK    9  A    between atoms: _24  and  _27
REMARK   10  A    between atoms: _27  and  _28
REMARK   11  A    between atoms: _31  and  _32
REMARK   12  A    between atoms: _37  and  _39
REMARK   13  A    between atoms: _39  and  _40
REMARK   14  A    between atoms: _39  and  _42
REMARK   15  A    between atoms: _42  and  _43
REMARK   16  A    between atoms: _46  and  _48
REMARK   17  A    between atoms: _48  and  _49
REMARK   18  A    between atoms: _48  and  _51
REMARK   19  A    between atoms: _51  and  _52
REMARK   20  A    between atoms: _57  and  _59
REMARK   21  A    between atoms: _59  and  _60
REMARK   22  A    between atoms: _59  and  _62
REMARK   23  A    between atoms: _62  and  _63
REMARK   24  A    between atoms: _68  and  _69
REMARK   25  A    between atoms: _71  and  _73
REMARK   26  A    between atoms: _73  and  _74
REMARK   27  A    between atoms: _73  and  _76
REMARK   28  A    between atoms: _76  and  _77
REMARK   29  A    between atoms: _82  and  _83
REMARK   30  A    between atoms: _85  and  _87
REMARK   31  A    between atoms: _87  and  _88
REMARK   32  A    between atoms: _87  and  _90
REMARK   33  A    between atoms: _90  and  _91
REMARK   34  A    between atoms: _97  and  _99
REMARK   35  A    between atoms: _99  and  _100
REMARK   36  A    between atoms: _99  and  _102
REMARK   37  A    between atoms: _102  and  _103
REMARK   38  A    between atoms: _103  and  _104
REMARK   39  A    between atoms: _104  and  _105
REMARK   40  A    between atoms: _105  and  _106
REMARK   41  A    between atoms: _110  and  _112
REMARK   42  A    between atoms: _112  and  _113
REMARK   43  A    between atoms: _112  and  _115
REMARK   44  A    between atoms: _115  and  _116
REMARK   45  A    between atoms: _118  and  _120
REMARK   46  A    between atoms: _120  and  _121
REMARK   47  A    between atoms: _120  and  _123
REMARK   48  A    between atoms: _125  and  _127
REMARK   49  A    between atoms: _127  and  _128
REMARK   50  A    between atoms: _127  and  _130
REMARK   51  A    between atoms: _132  and  _134
REMARK   52  A    between atoms: _134  and  _135
REMARK   53  A    between atoms: _134  and  _137
REMARK   54  A    between atoms: _139  and  _141
REMARK   55  A    between atoms: _141  and  _142
REMARK   56  A    between atoms: _141  and  _144
REMARK   57  A    between atoms: _144  and  _145
REMARK   58  A    between atoms: _150  and  _152
REMARK   59  A    between atoms: _152  and  _153
REMARK   60  A    between atoms: _152  and  _155
REMARK   61  A    between atoms: _155  and  _156
REMARK   62  A    between atoms: _161  and  _163
REMARK   63  A    between atoms: _163  and  _164
REMARK   64  A    between atoms: _163  and  _166
REMARK   65  A    between atoms: _169  and  _171
REMARK   66  A    between atoms: _171  and  _172
REMARK   67  A    between atoms: _171  and  _174
REMARK   68  A    between atoms: _174  and  _175
REMARK   69  A    between atoms: _178  and  _180
REMARK   70  A    between atoms: _180  and  _181
REMARK   71  A    between atoms: _180  and  _183
REMARK   72  A    between atoms: _183  and  _184
REMARK   73  A    between atoms: _187  and  _189
REMARK   74  A    between atoms: _189  and  _190
REMARK   75  A    between atoms: _189  and  _192
REMARK   76  A    between atoms: _192  and  _193
REMARK   77  A    between atoms: _196  and  _198
REMARK   78  A    between atoms: _198  and  _199
REMARK   79  A    between atoms: _198  and  _201
REMARK   80  A    between atoms: _201  and  _202
REMARK   81  A    between atoms: _205  and  _207
REMARK   82  A    between atoms: _207  and  _208
REMARK   83  A    between atoms: _210  and  _212
REMARK   84  A    between atoms: _212  and  _213
REMARK   85  A    between atoms: _212  and  _215
REMARK   86  A    between atoms: _219  and  _221
REMARK   87  A    between atoms: _221  and  _222
REMARK   88  A    between atoms: _221  and  _224
REMARK   89  A    between atoms: _224  and  _225
REMARK   90  A    between atoms: _228  and  _230
REMARK   91  A    between atoms: _230  and  _231
REMARK   92  A    between atoms: _230  and  _233
REMARK   93  A    between atoms: _233  and  _234
REMARK   94  A    between atoms: _239  and  _241
REMARK   95  A    between atoms: _241  and  _242
REMARK   96  A    between atoms: _241  and  _244
REMARK   97  A    between atoms: _244  and  _245
REMARK   98  A    between atoms: _250  and  _251
REMARK   99  A    between atoms: _253  and  _255
REMARK  100  A    between atoms: _255  and  _256
REMARK  101  A    between atoms: _255  and  _258
REMARK  102  A    between atoms: _260  and  _262
REMARK  103  A    between atoms: _262  and  _263
REMARK  104  A    between atoms: _265  and  _267
REMARK  105  A    between atoms: _267  and  _268
REMARK  106  A    between atoms: _267  and  _270
REMARK  107  A    between atoms: _270  and  _271
REMARK  108  A    between atoms: _275  and  CO_415
REMARK  109  A    between atoms: _276  and  _278
REMARK  110  A    between atoms: _278  and  _279
REMARK  111  A    between atoms: _281  and  _283
REMARK  112  A    between atoms: _283  and  _284
REMARK  113  A    between atoms: _283  and  _286
REMARK  114  A    between atoms: _286  and  _287
REMARK  115  A    between atoms: _290  and  _292
REMARK  116  A    between atoms: _292  and  _293
REMARK  117  A    between atoms: _292  and  _295
REMARK  118  A    between atoms: _295  and  _296
REMARK  119  A    between atoms: _296  and  _297
REMARK  120  A    between atoms: _299  and  _301
REMARK  121  A    between atoms: _301  and  _302
REMARK  122  A    between atoms: _301  and  _304
REMARK  123  A    between atoms: _304  and  _305
REMARK  124  A    between atoms: _310  and  _312
REMARK  125  A    between atoms: _312  and  _313
REMARK  126  A    between atoms: _312  and  _315
REMARK  127  A    between atoms: _315  and  _316
REMARK  128  A    between atoms: _319  and  _321
REMARK  129  A    between atoms: _321  and  _322
REMARK  130  A    between atoms: _321  and  _324
REMARK  131  A    between atoms: _324  and  _325
REMARK  132  A    between atoms: _328  and  _330
REMARK  133  A    between atoms: _330  and  _331
REMARK  134  A    between atoms: _330  and  _333
REMARK  135  A    between atoms: _333  and  _334
REMARK  136  A    between atoms: _337  and  _339
REMARK  137  A    between atoms: _339  and  _340
REMARK  138  A    between atoms: _339  and  _342
REMARK  139  A    between atoms: _342  and  _343
REMARK  140  A    between atoms: _343  and  _344
REMARK  141  A    between atoms: _344  and  _345
REMARK  142  A    between atoms: _345  and  CO_415
REMARK  143  A    between atoms: _347  and  _349
REMARK  144  A    between atoms: _349  and  _350
REMARK  145  A    between atoms: _349  and  _352
REMARK  146  A    between atoms: _352  and  _353
REMARK  147  A    between atoms: _353  and  _354
REMARK  148  A    between atoms: _356  and  _358
REMARK  149  A    between atoms: _358  and  _359
REMARK  150  A    between atoms: _358  and  _361
REMARK  151  A    between atoms: _361  and  _362
REMARK  152  A    between atoms: _372  and  _374
REMARK  153  A    between atoms: _374  and  _375
REMARK  154  A    between atoms: _374  and  _377
REMARK  155  A    between atoms: _377  and  _378
REMARK  156  A    between atoms: _378  and  _379
REMARK  157  A    between atoms: _384  and  _386
REMARK  158  A    between atoms: _386  and  _387
REMARK  159  A    between atoms: _386  and  _389
REMARK  160  A    between atoms: _389  and  _390
REMARK  161  A    between atoms: _396  and  _398
REMARK  162  A    between atoms: _398  and  _399
REMARK  163  A    between atoms: _398  and  _401
REMARK  164  A    between atoms: _401  and  _402
REMARK  165  A    between atoms: _402  and  _403
REMARK  166  A    between atoms: _406  and  _408
REMARK  167  A    between atoms: _408  and  _409
REMARK  168  A    between atoms: _408  and  _411
REMARK  169  A    between atoms: _411  and  _412
REMARK                            x       y       z     vdW  Elec       q    Type
REMARK                         _______ _______ _______ _____ _____    ______ ____
ROOT
ATOM      1  CA  MET A   1      12.360   1.470   7.417  0.00  0.00    +0.134 C 
ENDROOT
BRANCH   1   2
ATOM      2  N   MET A   1      12.998   2.363   8.416  0.00  0.00    -0.239 NA
ATOM      3  H   MET A   1      12.735   2.246   9.415  0.00  0.00    +0.142 HD
ENDBRANCH   1   2
BRANCH   1   4
ATOM      4  C   MET A   1      10.881   1.838   7.283  0.00  0.00    +0.224 C 
ATOM      5  O   MET A   1      10.098   1.849   8.263  0.00  0.00    -0.287 OA
ENDBRANCH   1   4
BRANCH   1   6
ATOM      6  CB  MET A   1      12.478   0.059   7.868  0.00  0.00    +0.037 C 
BRANCH   6   7
ATOM      7  CG  MET A   1      13.898  -0.507   7.926  0.00  0.00    +0.059 C 
BRANCH   7   8
ATOM      8  SD  MET A   1      14.259  -1.432   9.457  0.00  0.00    -0.139 S 
ATOM      9  CE  MET A   1      14.218  -0.052  10.612  0.00  0.00    +0.069 C 
ENDBRANCH   7   8
ENDBRANCH   6   7
ENDBRANCH   1   6
TORSDOF 5
REMARK  Name = ../refined-set-2016/4u73/4u73_pocket.pdb
REMARK  169 active torsions:
REMARK  status: ('A' for Active; 'I' for Inactive)
REMARK    1  A    between atoms: _1  and  _3
REMARK    2  A    between atoms: _3  and  _4
REMARK    3  A    between atoms: _3  and  _6
REMARK    4  A    between atoms: _6  and  _7
REMARK    5  A    between atoms: _12  and  _13
REMARK    6  A    between atoms: _16  and  _17
REMARK    7  A    between atoms: _22  and  _24
REMARK    8  A    between atoms: _24  and  _25
REMARK    9  A    between atoms: _24  and  _27
REMARK   10  A    between atoms: _27  and  _28
REMARK   11  A    between atoms: _31  and  _32
REMARK   12  A    between atoms: _37  and  _39
REMARK   13  A    between atoms: _39  and  _40
REMARK   14  A    between atoms: _39  and  _42
REMARK   15  A    between atoms: _42  and  _43
REMARK   16  A    between atoms: _46  and  _48
REMARK   17  A    between atoms: _48  and  _49
REMARK   18  A    between atoms: _48  and  _51
REMARK   19  A    between atoms: _51  and  _52
REMARK   20  A    between atoms: _57  and  _59
REMARK   21  A    between atoms: _59  and  _60
REMARK   22  A    between atoms: _59  and  _62
REMARK   23  A    between atoms: _62  and  _63
REMARK   24  A    between atoms: _68  and  _69
REMARK   25  A    between atoms: _71  and  _73
REMARK   26  A    between atoms: _73  and  _74
REMARK   27  A    between atoms: _73  and  _76
REMARK   28  A    between atoms: _76  and  _77
REMARK   29  A    between atoms: _82  and  _83
REMARK   30  A    between atoms: _85  and  _87
REMARK   31  A    between atoms: _87  and  _88
REMARK   32  A    between atoms: _87  and  _90
REMARK   33  A    between atoms: _90  and  _91
REMARK   34  A    between atoms: _97  and  _99
REMARK   35  A    between atoms: _99  and  _100
REMARK   36  A    between atoms: _99  and  _102
REMARK   37  A    between atoms: _102  and  _103
REMARK   38  A    between atoms: _103  and  _104
REMARK   39  A    between atoms: _104  and  _105
REMARK   40  A    between atoms: _105  and  _106
REMARK   41  A    between atoms: _110  and  _112
REMARK   42  A    between atoms: _112  and  _113
REMARK   43  A    between atoms: _112  and  _115
REMARK   44  A    between atoms: _115  and  _116
REMARK   45  A    between atoms: _118  and  _120
REMARK   46  A    between atoms: _120  and  _121
REMARK   47  A    between atoms: _120  and  _123
REMARK   48  A    between atoms: _125  and  _127
REMARK   49  A    between atoms: _127  and  _128
REMARK   50  A    between atoms: _127  and  _130
REMARK   51  A    between atoms: _132  and  _134
REMARK   52  A    between atoms: _134  and  _135
REMARK   53  A    between atoms: _134  and  _137
REMARK   54  A    between atoms: _139  and  _141
REMARK   55  A    between atoms: _141  and  _142
REMARK   56  A    between atoms: _141  and  _144
REMARK   57  A    between atoms: _144  and  _145
REMARK   58  A    between atoms: _150  and  _152
REMARK   59  A    between atoms: _152  and  _153
REMARK   60  A    between atoms: _152  and  _155
REMARK   61  A    between atoms: _155  and  _156
REMARK   62  A    between atoms: _161  and  _163
REMARK   63  A    between atoms: _163  and  _164
REMARK   64  A    between atoms: _163  and  _166
REMARK   65  A    between atoms: _169  and  _171
REMARK   66  A    between atoms: _171  and  _172
REMARK   67  A    between atoms: _171  and  _174
REMARK   68  A    between atoms: _174  and  _175
REMARK   69  A    between atoms: _178  and  _180
REMARK   70  A    between atoms: _180  and  _181
REMARK   71  A    between atoms: _180  and  _183
REMARK   72  A    between atoms: _183  and  _184
REMARK   73  A    between atoms: _187  and  _189
REMARK   74  A    between atoms: _189  and  _190
REMARK   75  A    between atoms: _189  and  _192
REMARK   76  A    between atoms: _192  and  _193
REMARK   77  A    between atoms: _196  and  _198
REMARK   78  A    between atoms: _198  and  _199
REMARK   79  A    between atoms: _198  and  _201
REMARK   80  A    between atoms: _201  and  _202
REMARK   81  A    between atoms: _205  and  _207
REMARK   82  A    between atoms: _207  and  _208
REMARK   83  A    between atoms: _210  and  _212
REMARK   84  A    between atoms: _212  and  _213
REMARK   85  A    between atoms: _212  and  _215
REMARK   86  A    between atoms: _219  and  _221
REMARK   87  A    between atoms: _221  and  _222
REMARK   88  A    between atoms: _221  and  _224
REMARK   89  A    between atoms: _224  and  _225
REMARK   90  A    between atoms: _228  and  _230
REMARK   91  A    between atoms: _230  and  _231
REMARK   92  A    between atoms: _230  and  _233
REMARK   93  A    between atoms: _233  and  _234
REMARK   94  A    between atoms: _239  and  _241
REMARK   95  A    between atoms: _241  and  _242
REMARK   96  A    between atoms: _241  and  _244
REMARK   97  A    between atoms: _244  and  _245
REMARK   98  A    between atoms: _250  and  _251
REMARK   99  A    between atoms: _253  and  _255
REMARK  100  A    between atoms: _255  and  _256
REMARK  101  A    between atoms: _255  and  _258
REMARK  102  A    between atoms: _260  and  _262
REMARK  103  A    between atoms: _262  and  _263
REMARK  104  A    between atoms: _265  and  _267
REMARK  105  A    between atoms: _267  and  _268
REMARK  106  A    between atoms: _267  and  _270
REMARK  107  A    between atoms: _270  and  _271
REMARK  108  A    between atoms: _275  and  CO_415
REMARK  109  A    between atoms: _276  and  _278
REMARK  110  A    between atoms: _278  and  _279
REMARK  111  A    between atoms: _281  and  _283
REMARK  112  A    between atoms: _283  and  _284
REMARK  113  A    between atoms: _283  and  _286
REMARK  114  A    between atoms: _286  and  _287
REMARK  115  A    between atoms: _290  and  _292
REMARK  116  A    between atoms: _292  and  _293
REMARK  117  A    between atoms: _292  and  _295
REMARK  118  A    between atoms: _295  and  _296
REMARK  119  A    between atoms: _296  and  _297
REMARK  120  A    between atoms: _299  and  _301
REMARK  121  A    between atoms: _301  and  _302
REMARK  122  A    between atoms: _301  and  _304
REMARK  123  A    between atoms: _304  and  _305
REMARK  124  A    between atoms: _310  and  _312
REMARK  125  A    between atoms: _312  and  _313
REMARK  126  A    between atoms: _312  and  _315
REMARK  127  A    between atoms: _315  and  _316
REMARK  128  A    between atoms: _319  and  _321
REMARK  129  A    between atoms: _321  and  _322
REMARK  130  A    between atoms: _321  and  _324
REMARK  131  A    between atoms: _324  and  _325
REMARK  132  A    between atoms: _328  and  _330
REMARK  133  A    between atoms: _330  and  _331
REMARK  134  A    between atoms: _330  and  _333
REMARK  135  A    between atoms: _333  and  _334
REMARK  136  A    between atoms: _337  and  _339
REMARK  137  A    between atoms: _339  and  _340
REMARK  138  A    between atoms: _339  and  _342
REMARK  139  A    between atoms: _342  and  _343
REMARK  140  A    between atoms: _343  and  _344
REMARK  141  A    between atoms: _344  and  _345
REMARK  142  A    between atoms: _345  and  CO_415
REMARK  143  A    between atoms: _347  and  _349
REMARK  144  A    between atoms: _349  and  _350
REMARK  145  A    between atoms: _349  and  _352
REMARK  146  A    between atoms: _352  and  _353
REMARK  147  A    between atoms: _353  and  _354
REMARK  148  A    between atoms: _356  and  _358
REMARK  149  A    between atoms: _358  and  _359
REMARK  150  A    between atoms: _358  and  _361
REMARK  151  A    between atoms: _361  and  _362
REMARK  152  A    between atoms: _372  and  _374
REMARK  153  A    between atoms: _374  and  _375
REMARK  154  A    between atoms: _374  and  _377
REMARK  155  A    between atoms: _377  and  _378
REMARK  156  A    between atoms: _378  and  _379
REMARK  157  A    between atoms: _384  and  _386
REMARK  158  A    between atoms: _386  and  _387
REMARK  159  A    between atoms: _386  and  _389
REMARK  160  A    between atoms: _389  and  _390
REMARK  161  A    between atoms: _396  and  _398
REMARK  162  A    between atoms: _398  and  _399
REMARK  163  A    between atoms: _398  and  _401
REMARK  164  A    between atoms: _401  and  _402
REMARK  165  A    between atoms: _402  and  _403
REMARK  166  A    between atoms: _406  and  _408
REMARK  167  A    between atoms: _408  and  _409
REMARK  168  A    between atoms: _408  and  _411
REMARK  169  A    between atoms: _411  and  _412
REMARK                            x       y       z     vdW  Elec       q    Type
REMARK                         _______ _______ _______ _____ _____    ______ ____
ROOT
ATOM      1  CG  TRP A   1      20.048 -13.301  10.070  0.00  0.00    -0.002 A 
ATOM      2  CD2 TRP A   1      20.472 -12.435  11.122  0.00  0.00    +0.013 A 
ATOM      3  CE2 TRP A   1      21.494 -13.120  11.837  0.00  0.00    +0.056 A 
ATOM      4  CZ2 TRP A   1      22.149 -12.547  12.912  0.00  0.00    +0.017 A 
ATOM      5  CH2 TRP A   1      21.894 -11.240  13.175  0.00  0.00    +0.001 A 
ATOM      6  CZ3 TRP A   1      20.894 -10.509  12.492  0.00  0.00    +0.000 A 
ATOM      7  NE1 TRP A   1      21.607 -14.393  11.308  0.00  0.00    -0.352 N 
ATOM      8  HE1 TRP A   1      22.254 -15.139  11.635  0.00  0.00    +0.166 HD
ATOM      9  CE3 TRP A   1      20.217 -11.097  11.412  0.00  0.00    +0.001 A 
ATOM     10  CD1 TRP A   1      20.703 -14.495  10.264  0.00  0.00    +0.068 A 
ENDROOT
BRANCH   1  11
ATOM     11  CB  TRP A   1      18.941 -13.019   9.061  0.00  0.00    +0.053 C 
BRANCH  11  12
ATOM     12  CA  TRP A   1      17.604 -12.933   9.713  0.00  0.00    +0.137 C 
BRANCH  12  13
ATOM     13  N   TRP A   1      17.119 -14.280   9.984  0.00  0.00    -0.239 NA
ATOM     14  H   TRP A   1      16.894 -14.901   9.181  0.00  0.00    +0.142 HD
ENDBRANCH  12  13
BRANCH  12  15
ATOM     15  C   TRP A   1      16.716 -12.087   8.829  0.00  0.00    +0.224 C 
ATOM     16  O   TRP A   1      16.470 -10.892   9.095  0.00  0.00    -0.287 OA
ENDBRANCH  12  15
ENDBRANCH  11  12
ENDBRANCH   1  11
TORSDOF 4
REMARK  Name = ../refined-set-2016/4u73/4u73_pocket.pdb
REMARK  169 active torsions:
REMARK  status: ('A' for Active; 'I' for Inactive)
REMARK    1  A    between atoms: _1  and  _3
REMARK    2  A    between atoms: _3  and  _4
REMARK    3  A    between atoms: _3  and  _6
REMARK    4  A    between atoms: _6  and  _7
REMARK    5  A    between atoms: _12  and  _13
REMARK    6  A    between atoms: _16  and  _17
REMARK    7  A    between atoms: _22  and  _24
REMARK    8  A    between atoms: _24  and  _25
REMARK    9  A    between atoms: _24  and  _27
REMARK   10  A    between atoms: _27  and  _28
REMARK   11  A    between atoms: _31  and  _32
REMARK   12  A    between atoms: _37  and  _39
REMARK   13  A    between atoms: _39  and  _40
REMARK   14  A    between atoms: _39  and  _42
REMARK   15  A    between atoms: _42  and  _43
REMARK   16  A    between atoms: _46  and  _48
REMARK   17  A    between atoms: _48  and  _49
REMARK   18  A    between atoms: _48  and  _51
REMARK   19  A    between atoms: _51  and  _52
REMARK   20  A    between atoms: _57  and  _59
REMARK   21  A    between atoms: _59  and  _60
REMARK   22  A    between atoms: _59  and  _62
REMARK   23  A    between atoms: _62  and  _63
REMARK   24  A    between atoms: _68  and  _69
REMARK   25  A    between atoms: _71  and  _73
REMARK   26  A    between atoms: _73  and  _74
REMARK   27  A    between atoms: _73  and  _76
REMARK   28  A    between atoms: _76  and  _77
REMARK   29  A    between atoms: _82  and  _83
REMARK   30  A    between atoms: _85  and  _87
REMARK   31  A    between atoms: _87  and  _88
REMARK   32  A    between atoms: _87  and  _90
REMARK   33  A    between atoms: _90  and  _91
REMARK   34  A    between atoms: _97  and  _99
REMARK   35  A    between atoms: _99  and  _100
REMARK   36  A    between atoms: _99  and  _102
REMARK   37  A    between atoms: _102  and  _103
REMARK   38  A    between atoms: _103  and  _104
REMARK   39  A    between atoms: _104  and  _105
REMARK   40  A    between atoms: _105  and  _106
REMARK   41  A    between atoms: _110  and  _112
REMARK   42  A    between atoms: _112  and  _113
REMARK   43  A    between atoms: _112  and  _115
REMARK   44  A    between atoms: _115  and  _116
REMARK   45  A    between atoms: _118  and  _120
REMARK   46  A    between atoms: _120  and  _121
REMARK   47  A    between atoms: _120  and  _123
REMARK   48  A    between atoms: _125  and  _127
REMARK   49  A    between atoms: _127  and  _128
REMARK   50  A    between atoms: _127  and  _130
REMARK   51  A    between atoms: _132  and  _134
REMARK   52  A    between atoms: _134  and  _135
REMARK   53  A    between atoms: _134  and  _137
REMARK   54  A    between atoms: _139  and  _141
REMARK   55  A    between atoms: _141  and  _142
REMARK   56  A    between atoms: _141  and  _144
REMARK   57  A    between atoms: _144  and  _145
REMARK   58  A    between atoms: _150  and  _152
REMARK   59  A    between atoms: _152  and  _153
REMARK   60  A    between atoms: _152  and  _155
REMARK   61  A    between atoms: _155  and  _156
REMARK   62  A    between atoms: _161  and  _163
REMARK   63  A    between atoms: _163  and  _164
REMARK   64  A    between atoms: _163  and  _166
REMARK   65  A    between atoms: _169  and  _171
REMARK   66  A    between atoms: _171  and  _172
REMARK   67  A    between atoms: _171  and  _174
REMARK   68  A    between atoms: _174  and  _175
REMARK   69  A    between atoms: _178  and  _180
REMARK   70  A    between atoms: _180  and  _181
REMARK   71  A    between atoms: _180  and  _183
REMARK   72  A    between atoms: _183  and  _184
REMARK   73  A    between atoms: _187  and  _189
REMARK   74  A    between atoms: _189  and  _190
REMARK   75  A    between atoms: _189  and  _192
REMARK   76  A    between atoms: _192  and  _193
REMARK   77  A    between atoms: _196  and  _198
REMARK   78  A    between atoms: _198  and  _199
REMARK   79  A    between atoms: _198  and  _201
REMARK   80  A    between atoms: _201  and  _202
REMARK   81  A    between atoms: _205  and  _207
REMARK   82  A    between atoms: _207  and  _208
REMARK   83  A    between atoms: _210  and  _212
REMARK   84  A    between atoms: _212  and  _213
REMARK   85  A    between atoms: _212  and  _215
REMARK   86  A    between atoms: _219  and  _221
REMARK   87  A    between atoms: _221  and  _222
REMARK   88  A    between atoms: _221  and  _224
REMARK   89  A    between atoms: _224  and  _225
REMARK   90  A    between atoms: _228  and  _230
REMARK   91  A    between atoms: _230  and  _231
REMARK   92  A    between atoms: _230  and  _233
REMARK   93  A    between atoms: _233  and  _234
REMARK   94  A    between atoms: _239  and  _241
REMARK   95  A    between atoms: _241  and  _242
REMARK   96  A    between atoms: _241  and  _244
REMARK   97  A    between atoms: _244  and  _245
REMARK   98  A    between atoms: _250  and  _251
REMARK   99  A    between atoms: _253  and  _255
REMARK  100  A    between atoms: _255  and  _256
REMARK  101  A    between atoms: _255  and  _258
REMARK  102  A    between atoms: _260  and  _262
REMARK  103  A    between atoms: _262  and  _263
REMARK  104  A    between atoms: _265  and  _267
REMARK  105  A    between atoms: _267  and  _268
REMARK  106  A    between atoms: _267  and  _270
REMARK  107  A    between atoms: _270  and  _271
REMARK  108  A    between atoms: _275  and  CO_415
REMARK  109  A    between atoms: _276  and  _278
REMARK  110  A    between atoms: _278  and  _279
REMARK  111  A    between atoms: _281  and  _283
REMARK  112  A    between atoms: _283  and  _284
REMARK  113  A    between atoms: _283  and  _286
REMARK  114  A    between atoms: _286  and  _287
REMARK  115  A    between atoms: _290  and  _292
REMARK  116  A    between atoms: _292  and  _293
REMARK  117  A    between atoms: _292  and  _295
REMARK  118  A    between atoms: _295  and  _296
REMARK  119  A    between atoms: _296  and  _297
REMARK  120  A    between atoms: _299  and  _301
REMARK  121  A    between atoms: _301  and  _302
REMARK  122  A    between atoms: _301  and  _304
REMARK  123  A    between atoms: _304  and  _305
REMARK  124  A    between atoms: _310  and  _312
REMARK  125  A    between atoms: _312  and  _313
REMARK  126  A    between atoms: _312  and  _315
REMARK  127  A    between atoms: _315  and  _316
REMARK  128  A    between atoms: _319  and  _321
REMARK  129  A    between atoms: _321  and  _322
REMARK  130  A    between atoms: _321  and  _324
REMARK  131  A    between atoms: _324  and  _325
REMARK  132  A    between atoms: _328  and  _330
REMARK  133  A    between atoms: _330  and  _331
REMARK  134  A    between atoms: _330  and  _333
REMARK  135  A    between atoms: _333  and  _334
REMARK  136  A    between atoms: _337  and  _339
REMARK  137  A    between atoms: _339  and  _340
REMARK  138  A    between atoms: _339  and  _342
REMARK  139  A    between atoms: _342  and  _343
REMARK  140  A    between atoms: _343  and  _344
REMARK  141  A    between atoms: _344  and  _345
REMARK  142  A    between atoms: _345  and  CO_415
REMARK  143  A    between atoms: _347  and  _349
REMARK  144  A    between atoms: _349  and  _350
REMARK  145  A    between atoms: _349  and  _352
REMARK  146  A    between atoms: _352  and  _353
REMARK  147  A    between atoms: _353  and  _354
REMARK  148  A    between atoms: _356  and  _358
REMARK  149  A    between atoms: _358  and  _359
REMARK  150  A    between atoms: _358  and  _361
REMARK  151  A    between atoms: _361  and  _362
REMARK  152  A    between atoms: _372  and  _374
REMARK  153  A    between atoms: _374  and  _375
REMARK  154  A    between atoms: _374  and  _377
REMARK  155  A    between atoms: _377  and  _378
REMARK  156  A    between atoms: _378  and  _379
REMARK  157  A    between atoms: _384  and  _386
REMARK  158  A    between atoms: _386  and  _387
REMARK  159  A    between atoms: _386  and  _389
REMARK  160  A    between atoms: _389  and  _390
REMARK  161  A    between atoms: _396  and  _398
REMARK  162  A    between atoms: _398  and  _399
REMARK  163  A    between atoms: _398  and  _401
REMARK  164  A    between atoms: _401  and  _402
REMARK  165  A    between atoms: _402  and  _403
REMARK  166  A    between atoms: _406  and  _408
REMARK  167  A    between atoms: _408  and  _409
REMARK  168  A    between atoms: _408  and  _411
REMARK  169  A    between atoms: _411  and  _412
REMARK                            x       y       z     vdW  Elec       q    Type
REMARK                         _______ _______ _______ _____ _____    ______ ____
ROOT
ATOM      1  CA  THR A   1      26.032   7.058  11.729  0.00  0.00    +0.160 C 
ENDROOT
BRANCH   1   2
ATOM      2  N   THR A   1      25.458   6.939  10.406  0.00  0.00    -0.237 NA
ATOM      3  H   THR A   1      26.106   6.895   9.594  0.00  0.00    +0.142 HD
ENDBRANCH   1   2
BRANCH   1   4
ATOM      4  C   THR A   1      26.285   8.569  12.017  0.00  0.00    +0.227 C 
ATOM      5  O   THR A   1      26.843   9.289  11.169  0.00  0.00    -0.287 OA
ENDBRANCH   1   4
BRANCH   1   6
ATOM      6  CB  THR A   1      27.341   6.226  11.799  0.00  0.00    +0.134 C 
ATOM      7  CG2 THR A   1      27.946   6.409  13.197  0.00  0.00    +0.034 C 
BRANCH   6   8
ATOM      8  OG1 THR A   1      27.004   4.840  11.659  0.00  0.00    -0.383 OA
ATOM      9  HG1 THR A   1      26.557   4.697  10.787  0.00  0.00    +0.210 HD
ENDBRANCH   6   8
ENDBRANCH   1   6
TORSDOF 4
REMARK  Name = ../refined-set-2016/4u73/4u73_pocket.pdb
REMARK  169 active torsions:
REMARK  status: ('A' for Active; 'I' for Inactive)
REMARK    1  A    between atoms: _1  and  _3
REMARK    2  A    between atoms: _3  and  _4
REMARK    3  A    between atoms: _3  and  _6
REMARK    4  A    between atoms: _6  and  _7
REMARK    5  A    between atoms: _12  and  _13
REMARK    6  A    between atoms: _16  and  _17
REMARK    7  A    between atoms: _22  and  _24
REMARK    8  A    between atoms: _24  and  _25
REMARK    9  A    between atoms: _24  and  _27
REMARK   10  A    between atoms: _27  and  _28
REMARK   11  A    between atoms: _31  and  _32
REMARK   12  A    between atoms: _37  and  _39
REMARK   13  A    between atoms: _39  and  _40
REMARK   14  A    between atoms: _39  and  _42
REMARK   15  A    between atoms: _42  and  _43
REMARK   16  A    between atoms: _46  and  _48
REMARK   17  A    between atoms: _48  and  _49
REMARK   18  A    between atoms: _48  and  _51
REMARK   19  A    between atoms: _51  and  _52
REMARK   20  A    between atoms: _57  and  _59
REMARK   21  A    between atoms: _59  and  _60
REMARK   22  A    between atoms: _59  and  _62
REMARK   23  A    between atoms: _62  and  _63
REMARK   24  A    between atoms: _68  and  _69
REMARK   25  A    between atoms: _71  and  _73
REMARK   26  A    between atoms: _73  and  _74
REMARK   27  A    between atoms: _73  and  _76
REMARK   28  A    between atoms: _76  and  _77
REMARK   29  A    between atoms: _82  and  _83
REMARK   30  A    between atoms: _85  and  _87
REMARK   31  A    between atoms: _87  and  _88
REMARK   32  A    between atoms: _87  and  _90
REMARK   33  A    between atoms: _90  and  _91
REMARK   34  A    between atoms: _97  and  _99
REMARK   35  A    between atoms: _99  and  _100
REMARK   36  A    between atoms: _99  and  _102
REMARK   37  A    between atoms: _102  and  _103
REMARK   38  A    between atoms: _103  and  _104
REMARK   39  A    between atoms: _104  and  _105
REMARK   40  A    between atoms: _105  and  _106
REMARK   41  A    between atoms: _110  and  _112
REMARK   42  A    between atoms: _112  and  _113
REMARK   43  A    between atoms: _112  and  _115
REMARK   44  A    between atoms: _115  and  _116
REMARK   45  A    between atoms: _118  and  _120
REMARK   46  A    between atoms: _120  and  _121
REMARK   47  A    between atoms: _120  and  _123
REMARK   48  A    between atoms: _125  and  _127
REMARK   49  A    between atoms: _127  and  _128
REMARK   50  A    between atoms: _127  and  _130
REMARK   51  A    between atoms: _132  and  _134
REMARK   52  A    between atoms: _134  and  _135
REMARK   53  A    between atoms: _134  and  _137
REMARK   54  A    between atoms: _139  and  _141
REMARK   55  A    between atoms: _141  and  _142
REMARK   56  A    between atoms: _141  and  _144
REMARK   57  A    between atoms: _144  and  _145
REMARK   58  A    between atoms: _150  and  _152
REMARK   59  A    between atoms: _152  and  _153
REMARK   60  A    between atoms: _152  and  _155
REMARK   61  A    between atoms: _155  and  _156
REMARK   62  A    between atoms: _161  and  _163
REMARK   63  A    between atoms: _163  and  _164
REMARK   64  A    between atoms: _163  and  _166
REMARK   65  A    between atoms: _169  and  _171
REMARK   66  A    between atoms: _171  and  _172
REMARK   67  A    between atoms: _171  and  _174
REMARK   68  A    between atoms: _174  and  _175
REMARK   69  A    between atoms: _178  and  _180
REMARK   70  A    between atoms: _180  and  _181
REMARK   71  A    between atoms: _180  and  _183
REMARK   72  A    between atoms: _183  and  _184
REMARK   73  A    between atoms: _187  and  _189
REMARK   74  A    between atoms: _189  and  _190
REMARK   75  A    between atoms: _189  and  _192
REMARK   76  A    between atoms: _192  and  _193
REMARK   77  A    between atoms: _196  and  _198
REMARK   78  A    between atoms: _198  and  _199
REMARK   79  A    between atoms: _198  and  _201
REMARK   80  A    between atoms: _201  and  _202
REMARK   81  A    between atoms: _205  and  _207
REMARK   82  A    between atoms: _207  and  _208
REMARK   83  A    between atoms: _210  and  _212
REMARK   84  A    between atoms: _212  and  _213
REMARK   85  A    between atoms: _212  and  _215
REMARK   86  A    between atoms: _219  and  _221
REMARK   87  A    between atoms: _221  and  _222
REMARK   88  A    between atoms: _221  and  _224
REMARK   89  A    between atoms: _224  and  _225
REMARK   90  A    between atoms: _228  and  _230
REMARK   91  A    between atoms: _230  and  _231
REMARK   92  A    between atoms: _230  and  _233
REMARK   93  A    between atoms: _233  and  _234
REMARK   94  A    between atoms: _239  and  _241
REMARK   95  A    between atoms: _241  and  _242
REMARK   96  A    between atoms: _241  and  _244
REMARK   97  A    between atoms: _244  and  _245
REMARK   98  A    between atoms: _250  and  _251
REMARK   99  A    between atoms: _253  and  _255
REMARK  100  A    between atoms: _255  and  _256
REMARK  101  A    between atoms: _255  and  _258
REMARK  102  A    between atoms: _260  and  _262
REMARK  103  A    between atoms: _262  and  _263
REMARK  104  A    between atoms: _265  and  _267
REMARK  105  A    between atoms: _267  and  _268
REMARK  106  A    between atoms: _267  and  _270
REMARK  107  A    between atoms: _270  and  _271
REMARK  108  A    between atoms: _275  and  CO_415
REMARK  109  A    between atoms: _276  and  _278
REMARK  110  A    between atoms: _278  and  _279
REMARK  111  A    between atoms: _281  and  _283
REMARK  112  A    between atoms: _283  and  _284
REMARK  113  A    between atoms: _283  and  _286
REMARK  114  A    between atoms: _286  and  _287
REMARK  115  A    between atoms: _290  and  _292
REMARK  116  A    between atoms: _292  and  _293
REMARK  117  A    between atoms: _292  and  _295
REMARK  118  A    between atoms: _295  and  _296
REMARK  119  A    between atoms: _296  and  _297
REMARK  120  A    between atoms: _299  and  _301
REMARK  121  A    between atoms: _301  and  _302
REMARK  122  A    between atoms: _301  and  _304
REMARK  123  A    between atoms: _304  and  _305
REMARK  124  A    between atoms: _310  and  _312
REMARK  125  A    between atoms: _312  and  _313
REMARK  126  A    between atoms: _312  and  _315
REMARK  127  A    between atoms: _315  and  _316
REMARK  128  A    between atoms: _319  and  _321
REMARK  129  A    between atoms: _321  and  _322
REMARK  130  A    between atoms: _321  and  _324
REMARK  131  A    between atoms: _324  and  _325
REMARK  132  A    between atoms: _328  and  _330
REMARK  133  A    between atoms: _330  and  _331
REMARK  134  A    between atoms: _330  and  _333
REMARK  135  A    between atoms: _333  and  _334
REMARK  136  A    between atoms: _337  and  _339
REMARK  137  A    between atoms: _339  and  _340
REMARK  138  A    between atoms: _339  and  _342
REMARK  139  A    between atoms: _342  and  _343
REMARK  140  A    between atoms: _343  and  _344
REMARK  141  A    between atoms: _344  and  _345
REMARK  142  A    between atoms: _345  and  CO_415
REMARK  143  A    between atoms: _347  and  _349
REMARK  144  A    between atoms: _349  and  _350
REMARK  145  A    between atoms: _349  and  _352
REMARK  146  A    between atoms: _352  and  _353
REMARK  147  A    between atoms: _353  and  _354
REMARK  148  A    between atoms: _356  and  _358
REMARK  149  A    between atoms: _358  and  _359
REMARK  150  A    between atoms: _358  and  _361
REMARK  151  A    between atoms: _361  and  _362
REMARK  152  A    between atoms: _372  and  _374
REMARK  153  A    between atoms: _374  and  _375
REMARK  154  A    between atoms: _374  and  _377
REMARK  155  A    between atoms: _377  and  _378
REMARK  156  A    between atoms: _378  and  _379
REMARK  157  A    between atoms: _384  and  _386
REMARK  158  A    between atoms: _386  and  _387
REMARK  159  A    between atoms: _386  and  _389
REMARK  160  A    between atoms: _389  and  _390
REMARK  161  A    between atoms: _396  and  _398
REMARK  162  A    between atoms: _398  and  _399
REMARK  163  A    between atoms: _398  and  _401
REMARK  164  A    between atoms: _401  and  _402
REMARK  165  A    between atoms: _402  and  _403
REMARK  166  A    between atoms: _406  and  _408
REMARK  167  A    between atoms: _408  and  _409
REMARK  168  A    between atoms: _408  and  _411
REMARK  169  A    between atoms: _411  and  _412
REMARK                            x       y       z     vdW  Elec       q    Type
REMARK                         _______ _______ _______ _____ _____    ______ ____
ROOT
ATOM      1  O   HOH     1      29.944  -4.519   5.685  0.00  0.00    +0.000 OA
ENDROOT
TORSDOF 0
REMARK  Name = ../refined-set-2016/4u73/4u73_pocket.pdb
REMARK  169 active torsions:
REMARK  status: ('A' for Active; 'I' for Inactive)
REMARK    1  A    between atoms: _1  and  _3
REMARK    2  A    between atoms: _3  and  _4
REMARK    3  A    between atoms: _3  and  _6
REMARK    4  A    between atoms: _6  and  _7
REMARK    5  A    between atoms: _12  and  _13
REMARK    6  A    between atoms: _16  and  _17
REMARK    7  A    between atoms: _22  and  _24
REMARK    8  A    between atoms: _24  and  _25
REMARK    9  A    between atoms: _24  and  _27
REMARK   10  A    between atoms: _27  and  _28
REMARK   11  A    between atoms: _31  and  _32
REMARK   12  A    between atoms: _37  and  _39
REMARK   13  A    between atoms: _39  and  _40
REMARK   14  A    between atoms: _39  and  _42
REMARK   15  A    between atoms: _42  and  _43
REMARK   16  A    between atoms: _46  and  _48
REMARK   17  A    between atoms: _48  and  _49
REMARK   18  A    between atoms: _48  and  _51
REMARK   19  A    between atoms: _51  and  _52
REMARK   20  A    between atoms: _57  and  _59
REMARK   21  A    between atoms: _59  and  _60
REMARK   22  A    between atoms: _59  and  _62
REMARK   23  A    between atoms: _62  and  _63
REMARK   24  A    between atoms: _68  and  _69
REMARK   25  A    between atoms: _71  and  _73
REMARK   26  A    between atoms: _73  and  _74
REMARK   27  A    between atoms: _73  and  _76
REMARK   28  A    between atoms: _76  and  _77
REMARK   29  A    between atoms: _82  and  _83
REMARK   30  A    between atoms: _85  and  _87
REMARK   31  A    between atoms: _87  and  _88
REMARK   32  A    between atoms: _87  and  _90
REMARK   33  A    between atoms: _90  and  _91
REMARK   34  A    between atoms: _97  and  _99
REMARK   35  A    between atoms: _99  and  _100
REMARK   36  A    between atoms: _99  and  _102
REMARK   37  A    between atoms: _102  and  _103
REMARK   38  A    between atoms: _103  and  _104
REMARK   39  A    between atoms: _104  and  _105
REMARK   40  A    between atoms: _105  and  _106
REMARK   41  A    between atoms: _110  and  _112
REMARK   42  A    between atoms: _112  and  _113
REMARK   43  A    between atoms: _112  and  _115
REMARK   44  A    between atoms: _115  and  _116
REMARK   45  A    between atoms: _118  and  _120
REMARK   46  A    between atoms: _120  and  _121
REMARK   47  A    between atoms: _120  and  _123
REMARK   48  A    between atoms: _125  and  _127
REMARK   49  A    between atoms: _127  and  _128
REMARK   50  A    between atoms: _127  and  _130
REMARK   51  A    between atoms: _132  and  _134
REMARK   52  A    between atoms: _134  and  _135
REMARK   53  A    between atoms: _134  and  _137
REMARK   54  A    between atoms: _139  and  _141
REMARK   55  A    between atoms: _141  and  _142
REMARK   56  A    between atoms: _141  and  _144
REMARK   57  A    between atoms: _144  and  _145
REMARK   58  A    between atoms: _150  and  _152
REMARK   59  A    between atoms: _152  and  _153
REMARK   60  A    between atoms: _152  and  _155
REMARK   61  A    between atoms: _155  and  _156
REMARK   62  A    between atoms: _161  and  _163
REMARK   63  A    between atoms: _163  and  _164
REMARK   64  A    between atoms: _163  and  _166
REMARK   65  A    between atoms: _169  and  _171
REMARK   66  A    between atoms: _171  and  _172
REMARK   67  A    between atoms: _171  and  _174
REMARK   68  A    between atoms: _174  and  _175
REMARK   69  A    between atoms: _178  and  _180
REMARK   70  A    between atoms: _180  and  _181
REMARK   71  A    between atoms: _180  and  _183
REMARK   72  A    between atoms: _183  and  _184
REMARK   73  A    between atoms: _187  and  _189
REMARK   74  A    between atoms: _189  and  _190
REMARK   75  A    between atoms: _189  and  _192
REMARK   76  A    between atoms: _192  and  _193
REMARK   77  A    between atoms: _196  and  _198
REMARK   78  A    between atoms: _198  and  _199
REMARK   79  A    between atoms: _198  and  _201
REMARK   80  A    between atoms: _201  and  _202
REMARK   81  A    between atoms: _205  and  _207
REMARK   82  A    between atoms: _207  and  _208
REMARK   83  A    between atoms: _210  and  _212
REMARK   84  A    between atoms: _212  and  _213
REMARK   85  A    between atoms: _212  and  _215
REMARK   86  A    between atoms: _219  and  _221
REMARK   87  A    between atoms: _221  and  _222
REMARK   88  A    between atoms: _221  and  _224
REMARK   89  A    between atoms: _224  and  _225
REMARK   90  A    between atoms: _228  and  _230
REMARK   91  A    between atoms: _230  and  _231
REMARK   92  A    between atoms: _230  and  _233
REMARK   93  A    between atoms: _233  and  _234
REMARK   94  A    between atoms: _239  and  _241
REMARK   95  A    between atoms: _241  and  _242
REMARK   96  A    between atoms: _241  and  _244
REMARK   97  A    between atoms: _244  and  _245
REMARK   98  A    between atoms: _250  and  _251
REMARK   99  A    between atoms: _253  and  _255
REMARK  100  A    between atoms: _255  and  _256
REMARK  101  A    between atoms: _255  and  _258
REMARK  102  A    between atoms: _260  and  _262
REMARK  103  A    between atoms: _262  and  _263
REMARK  104  A    between atoms: _265  and  _267
REMARK  105  A    between atoms: _267  and  _268
REMARK  106  A    between atoms: _267  and  _270
REMARK  107  A    between atoms: _270  and  _271
REMARK  108  A    between atoms: _275  and  CO_415
REMARK  109  A    between atoms: _276  and  _278
REMARK  110  A    between atoms: _278  and  _279
REMARK  111  A    between atoms: _281  and  _283
REMARK  112  A    between atoms: _283  and  _284
REMARK  113  A    between atoms: _283  and  _286
REMARK  114  A    between atoms: _286  and  _287
REMARK  115  A    between atoms: _290  and  _292
REMARK  116  A    between atoms: _292  and  _293
REMARK  117  A    between atoms: _292  and  _295
REMARK  118  A    between atoms: _295  and  _296
REMARK  119  A    between atoms: _296  and  _297
REMARK  120  A    between atoms: _299  and  _301
REMARK  121  A    between atoms: _301  and  _302
REMARK  122  A    between atoms: _301  and  _304
REMARK  123  A    between atoms: _304  and  _305
REMARK  124  A    between atoms: _310  and  _312
REMARK  125  A    between atoms: _312  and  _313
REMARK  126  A    between atoms: _312  and  _315
REMARK  127  A    between atoms: _315  and  _316
REMARK  128  A    between atoms: _319  and  _321
REMARK  129  A    between atoms: _321  and  _322
REMARK  130  A    between atoms: _321  and  _324
REMARK  131  A    between atoms: _324  and  _325
REMARK  132  A    between atoms: _328  and  _330
REMARK  133  A    between atoms: _330  and  _331
REMARK  134  A    between atoms: _330  and  _333
REMARK  135  A    between atoms: _333  and  _334
REMARK  136  A    between atoms: _337  and  _339
REMARK  137  A    between atoms: _339  and  _340
REMARK  138  A    between atoms: _339  and  _342
REMARK  139  A    between atoms: _342  and  _343
REMARK  140  A    between atoms: _343  and  _344
REMARK  141  A    between atoms: _344  and  _345
REMARK  142  A    between atoms: _345  and  CO_415
REMARK  143  A    between atoms: _347  and  _349
REMARK  144  A    between atoms: _349  and  _350
REMARK  145  A    between atoms: _349  and  _352
REMARK  146  A    between atoms: _352  and  _353
REMARK  147  A    between atoms: _353  and  _354
REMARK  148  A    between atoms: _356  and  _358
REMARK  149  A    between atoms: _358  and  _359
REMARK  150  A    between atoms: _358  and  _361
REMARK  151  A    between atoms: _361  and  _362
REMARK  152  A    between atoms: _372  and  _374
REMARK  153  A    between atoms: _374  and  _375
REMARK  154  A    between atoms: _374  and  _377
REMARK  155  A    between atoms: _377  and  _378
REMARK  156  A    between atoms: _378  and  _379
REMARK  157  A    between atoms: _384  and  _386
REMARK  158  A    between atoms: _386  and  _387
REMARK  159  A    between atoms: _386  and  _389
REMARK  160  A    between atoms: _389  and  _390
REMARK  161  A    between atoms: _396  and  _398
REMARK  162  A    between atoms: _398  and  _399
REMARK  163  A    between atoms: _398  and  _401
REMARK  164  A    between atoms: _401  and  _402
REMARK  165  A    between atoms: _402  and  _403
REMARK  166  A    between atoms: _406  and  _408
REMARK  167  A    between atoms: _408  and  _409
REMARK  168  A    between atoms: _408  and  _411
REMARK  169  A    between atoms: _411  and  _412
REMARK                            x       y       z     vdW  Elec       q    Type
REMARK                         _______ _______ _______ _____ _____    ______ ____
ROOT
ATOM      1  O   HOH     1      16.599  -9.512  11.368  0.00  0.00    +0.000 OA
ENDROOT
TORSDOF 0
REMARK  Name = ../refined-set-2016/4u73/4u73_pocket.pdb
REMARK  169 active torsions:
REMARK  status: ('A' for Active; 'I' for Inactive)
REMARK    1  A    between atoms: _1  and  _3
REMARK    2  A    between atoms: _3  and  _4
REMARK    3  A    between atoms: _3  and  _6
REMARK    4  A    between atoms: _6  and  _7
REMARK    5  A    between atoms: _12  and  _13
REMARK    6  A    between atoms: _16  and  _17
REMARK    7  A    between atoms: _22  and  _24
REMARK    8  A    between atoms: _24  and  _25
REMARK    9  A    between atoms: _24  and  _27
REMARK   10  A    between atoms: _27  and  _28
REMARK   11  A    between atoms: _31  and  _32
REMARK   12  A    between atoms: _37  and  _39
REMARK   13  A    between atoms: _39  and  _40
REMARK   14  A    between atoms: _39  and  _42
REMARK   15  A    between atoms: _42  and  _43
REMARK   16  A    between atoms: _46  and  _48
REMARK   17  A    between atoms: _48  and  _49
REMARK   18  A    between atoms: _48  and  _51
REMARK   19  A    between atoms: _51  and  _52
REMARK   20  A    between atoms: _57  and  _59
REMARK   21  A    between atoms: _59  and  _60
REMARK   22  A    between atoms: _59  and  _62
REMARK   23  A    between atoms: _62  and  _63
REMARK   24  A    between atoms: _68  and  _69
REMARK   25  A    between atoms: _71  and  _73
REMARK   26  A    between atoms: _73  and  _74
REMARK   27  A    between atoms: _73  and  _76
REMARK   28  A    between atoms: _76  and  _77
REMARK   29  A    between atoms: _82  and  _83
REMARK   30  A    between atoms: _85  and  _87
REMARK   31  A    between atoms: _87  and  _88
REMARK   32  A    between atoms: _87  and  _90
REMARK   33  A    between atoms: _90  and  _91
REMARK   34  A    between atoms: _97  and  _99
REMARK   35  A    between atoms: _99  and  _100
REMARK   36  A    between atoms: _99  and  _102
REMARK   37  A    between atoms: _102  and  _103
REMARK   38  A    between atoms: _103  and  _104
REMARK   39  A    between atoms: _104  and  _105
REMARK   40  A    between atoms: _105  and  _106
REMARK   41  A    between atoms: _110  and  _112
REMARK   42  A    between atoms: _112  and  _113
REMARK   43  A    between atoms: _112  and  _115
REMARK   44  A    between atoms: _115  and  _116
REMARK   45  A    between atoms: _118  and  _120
REMARK   46  A    between atoms: _120  and  _121
REMARK   47  A    between atoms: _120  and  _123
REMARK   48  A    between atoms: _125  and  _127
REMARK   49  A    between atoms: _127  and  _128
REMARK   50  A    between atoms: _127  and  _130
REMARK   51  A    between atoms: _132  and  _134
REMARK   52  A    between atoms: _134  and  _135
REMARK   53  A    between atoms: _134  and  _137
REMARK   54  A    between atoms: _139  and  _141
REMARK   55  A    between atoms: _141  and  _142
REMARK   56  A    between atoms: _141  and  _144
REMARK   57  A    between atoms: _144  and  _145
REMARK   58  A    between atoms: _150  and  _152
REMARK   59  A    between atoms: _152  and  _153
REMARK   60  A    between atoms: _152  and  _155
REMARK   61  A    between atoms: _155  and  _156
REMARK   62  A    between atoms: _161  and  _163
REMARK   63  A    between atoms: _163  and  _164
REMARK   64  A    between atoms: _163  and  _166
REMARK   65  A    between atoms: _169  and  _171
REMARK   66  A    between atoms: _171  and  _172
REMARK   67  A    between atoms: _171  and  _174
REMARK   68  A    between atoms: _174  and  _175
REMARK   69  A    between atoms: _178  and  _180
REMARK   70  A    between atoms: _180  and  _181
REMARK   71  A    between atoms: _180  and  _183
REMARK   72  A    between atoms: _183  and  _184
REMARK   73  A    between atoms: _187  and  _189
REMARK   74  A    between atoms: _189  and  _190
REMARK   75  A    between atoms: _189  and  _192
REMARK   76  A    between atoms: _192  and  _193
REMARK   77  A    between atoms: _196  and  _198
REMARK   78  A    between atoms: _198  and  _199
REMARK   79  A    between atoms: _198  and  _201
REMARK   80  A    between atoms: _201  and  _202
REMARK   81  A    between atoms: _205  and  _207
REMARK   82  A    between atoms: _207  and  _208
REMARK   83  A    between atoms: _210  and  _212
REMARK   84  A    between atoms: _212  and  _213
REMARK   85  A    between atoms: _212  and  _215
REMARK   86  A    between atoms: _219  and  _221
REMARK   87  A    between atoms: _221  and  _222
REMARK   88  A    between atoms: _221  and  _224
REMARK   89  A    between atoms: _224  and  _225
REMARK   90  A    between atoms: _228  and  _230
REMARK   91  A    between atoms: _230  and  _231
REMARK   92  A    between atoms: _230  and  _233
REMARK   93  A    between atoms: _233  and  _234
REMARK   94  A    between atoms: _239  and  _241
REMARK   95  A    between atoms: _241  and  _242
REMARK   96  A    between atoms: _241  and  _244
REMARK   97  A    between atoms: _244  and  _245
REMARK   98  A    between atoms: _250  and  _251
REMARK   99  A    between atoms: _253  and  _255
REMARK  100  A    between atoms: _255  and  _256
REMARK  101  A    between atoms: _255  and  _258
REMARK  102  A    between atoms: _260  and  _262
REMARK  103  A    between atoms: _262  and  _263
REMARK  104  A    between atoms: _265  and  _267
REMARK  105  A    between atoms: _267  and  _268
REMARK  106  A    between atoms: _267  and  _270
REMARK  107  A    between atoms: _270  and  _271
REMARK  108  A    between atoms: _275  and  CO_415
REMARK  109  A    between atoms: _276  and  _278
REMARK  110  A    between atoms: _278  and  _279
REMARK  111  A    between atoms: _281  and  _283
REMARK  112  A    between atoms: _283  and  _284
REMARK  113  A    between atoms: _283  and  _286
REMARK  114  A    between atoms: _286  and  _287
REMARK  115  A    between atoms: _290  and  _292
REMARK  116  A    between atoms: _292  and  _293
REMARK  117  A    between atoms: _292  and  _295
REMARK  118  A    between atoms: _295  and  _296
REMARK  119  A    between atoms: _296  and  _297
REMARK  120  A    between atoms: _299  and  _301
REMARK  121  A    between atoms: _301  and  _302
REMARK  122  A    between atoms: _301  and  _304
REMARK  123  A    between atoms: _304  and  _305
REMARK  124  A    between atoms: _310  and  _312
REMARK  125  A    between atoms: _312  and  _313
REMARK  126  A    between atoms: _312  and  _315
REMARK  127  A    between atoms: _315  and  _316
REMARK  128  A    between atoms: _319  and  _321
REMARK  129  A    between atoms: _321  and  _322
REMARK  130  A    between atoms: _321  and  _324
REMARK  131  A    between atoms: _324  and  _325
REMARK  132  A    between atoms: _328  and  _330
REMARK  133  A    between atoms: _330  and  _331
REMARK  134  A    between atoms: _330  and  _333
REMARK  135  A    between atoms: _333  and  _334
REMARK  136  A    between atoms: _337  and  _339
REMARK  137  A    between atoms: _339  and  _340
REMARK  138  A    between atoms: _339  and  _342
REMARK  139  A    between atoms: _342  and  _343
REMARK  140  A    between atoms: _343  and  _344
REMARK  141  A    between atoms: _344  and  _345
REMARK  142  A    between atoms: _345  and  CO_415
REMARK  143  A    between atoms: _347  and  _349
REMARK  144  A    between atoms: _349  and  _350
REMARK  145  A    between atoms: _349  and  _352
REMARK  146  A    between atoms: _352  and  _353
REMARK  147  A    between atoms: _353  and  _354
REMARK  148  A    between atoms: _356  and  _358
REMARK  149  A    between atoms: _358  and  _359
REMARK  150  A    between atoms: _358  and  _361
REMARK  151  A    between atoms: _361  and  _362
REMARK  152  A    between atoms: _372  and  _374
REMARK  153  A    between atoms: _374  and  _375
REMARK  154  A    between atoms: _374  and  _377
REMARK  155  A    between atoms: _377  and  _378
REMARK  156  A    between atoms: _378  and  _379
REMARK  157  A    between atoms: _384  and  _386
REMARK  158  A    between atoms: _386  and  _387
REMARK  159  A    between atoms: _386  and  _389
REMARK  160  A    between atoms: _389  and  _390
REMARK  161  A    between atoms: _396  and  _398
REMARK  162  A    between atoms: _398  and  _399
REMARK  163  A    between atoms: _398  and  _401
REMARK  164  A    between atoms: _401  and  _402
REMARK  165  A    between atoms: _402  and  _403
REMARK  166  A    between atoms: _406  and  _408
REMARK  167  A    between atoms: _408  and  _409
REMARK  168  A    between atoms: _408  and  _411
REMARK  169  A    between atoms: _411  and  _412
REMARK                            x       y       z     vdW  Elec       q    Type
REMARK                         _______ _______ _______ _____ _____    ______ ____
ROOT
ATOM      1  O   HOH     1      17.160  -2.489   4.183  0.00  0.00    +0.000 OA
ENDROOT
TORSDOF 0
REMARK  Name = ../refined-set-2016/4u73/4u73_pocket.pdb
REMARK  169 active torsions:
REMARK  status: ('A' for Active; 'I' for Inactive)
REMARK    1  A    between atoms: _1  and  _3
REMARK    2  A    between atoms: _3  and  _4
REMARK    3  A    between atoms: _3  and  _6
REMARK    4  A    between atoms: _6  and  _7
REMARK    5  A    between atoms: _12  and  _13
REMARK    6  A    between atoms: _16  and  _17
REMARK    7  A    between atoms: _22  and  _24
REMARK    8  A    between atoms: _24  and  _25
REMARK    9  A    between atoms: _24  and  _27
REMARK   10  A    between atoms: _27  and  _28
REMARK   11  A    between atoms: _31  and  _32
REMARK   12  A    between atoms: _37  and  _39
REMARK   13  A    between atoms: _39  and  _40
REMARK   14  A    between atoms: _39  and  _42
REMARK   15  A    between atoms: _42  and  _43
REMARK   16  A    between atoms: _46  and  _48
REMARK   17  A    between atoms: _48  and  _49
REMARK   18  A    between atoms: _48  and  _51
REMARK   19  A    between atoms: _51  and  _52
REMARK   20  A    between atoms: _57  and  _59
REMARK   21  A    between atoms: _59  and  _60
REMARK   22  A    between atoms: _59  and  _62
REMARK   23  A    between atoms: _62  and  _63
REMARK   24  A    between atoms: _68  and  _69
REMARK   25  A    between atoms: _71  and  _73
REMARK   26  A    between atoms: _73  and  _74
REMARK   27  A    between atoms: _73  and  _76
REMARK   28  A    between atoms: _76  and  _77
REMARK   29  A    between atoms: _82  and  _83
REMARK   30  A    between atoms: _85  and  _87
REMARK   31  A    between atoms: _87  and  _88
REMARK   32  A    between atoms: _87  and  _90
REMARK   33  A    between atoms: _90  and  _91
REMARK   34  A    between atoms: _97  and  _99
REMARK   35  A    between atoms: _99  and  _100
REMARK   36  A    between atoms: _99  and  _102
REMARK   37  A    between atoms: _102  and  _103
REMARK   38  A    between atoms: _103  and  _104
REMARK   39  A    between atoms: _104  and  _105
REMARK   40  A    between atoms: _105  and  _106
REMARK   41  A    between atoms: _110  and  _112
REMARK   42  A    between atoms: _112  and  _113
REMARK   43  A    between atoms: _112  and  _115
REMARK   44  A    between atoms: _115  and  _116
REMARK   45  A    between atoms: _118  and  _120
REMARK   46  A    between atoms: _120  and  _121
REMARK   47  A    between atoms: _120  and  _123
REMARK   48  A    between atoms: _125  and  _127
REMARK   49  A    between atoms: _127  and  _128
REMARK   50  A    between atoms: _127  and  _130
REMARK   51  A    between atoms: _132  and  _134
REMARK   52  A    between atoms: _134  and  _135
REMARK   53  A    between atoms: _134  and  _137
REMARK   54  A    between atoms: _139  and  _141
REMARK   55  A    between atoms: _141  and  _142
REMARK   56  A    between atoms: _141  and  _144
REMARK   57  A    between atoms: _144  and  _145
REMARK   58  A    between atoms: _150  and  _152
REMARK   59  A    between atoms: _152  and  _153
REMARK   60  A    between atoms: _152  and  _155
REMARK   61  A    between atoms: _155  and  _156
REMARK   62  A    between atoms: _161  and  _163
REMARK   63  A    between atoms: _163  and  _164
REMARK   64  A    between atoms: _163  and  _166
REMARK   65  A    between atoms: _169  and  _171
REMARK   66  A    between atoms: _171  and  _172
REMARK   67  A    between atoms: _171  and  _174
REMARK   68  A    between atoms: _174  and  _175
REMARK   69  A    between atoms: _178  and  _180
REMARK   70  A    between atoms: _180  and  _181
REMARK   71  A    between atoms: _180  and  _183
REMARK   72  A    between atoms: _183  and  _184
REMARK   73  A    between atoms: _187  and  _189
REMARK   74  A    between atoms: _189  and  _190
REMARK   75  A    between atoms: _189  and  _192
REMARK   76  A    between atoms: _192  and  _193
REMARK   77  A    between atoms: _196  and  _198
REMARK   78  A    between atoms: _198  and  _199
REMARK   79  A    between atoms: _198  and  _201
REMARK   80  A    between atoms: _201  and  _202
REMARK   81  A    between atoms: _205  and  _207
REMARK   82  A    between atoms: _207  and  _208
REMARK   83  A    between atoms: _210  and  _212
REMARK   84  A    between atoms: _212  and  _213
REMARK   85  A    between atoms: _212  and  _215
REMARK   86  A    between atoms: _219  and  _221
REMARK   87  A    between atoms: _221  and  _222
REMARK   88  A    between atoms: _221  and  _224
REMARK   89  A    between atoms: _224  and  _225
REMARK   90  A    between atoms: _228  and  _230
REMARK   91  A    between atoms: _230  and  _231
REMARK   92  A    between atoms: _230  and  _233
REMARK   93  A    between atoms: _233  and  _234
REMARK   94  A    between atoms: _239  and  _241
REMARK   95  A    between atoms: _241  and  _242
REMARK   96  A    between atoms: _241  and  _244
REMARK   97  A    between atoms: _244  and  _245
REMARK   98  A    between atoms: _250  and  _251
REMARK   99  A    between atoms: _253  and  _255
REMARK  100  A    between atoms: _255  and  _256
REMARK  101  A    between atoms: _255  and  _258
REMARK  102  A    between atoms: _260  and  _262
REMARK  103  A    between atoms: _262  and  _263
REMARK  104  A    between atoms: _265  and  _267
REMARK  105  A    between atoms: _267  and  _268
REMARK  106  A    between atoms: _267  and  _270
REMARK  107  A    between atoms: _270  and  _271
REMARK  108  A    between atoms: _275  and  CO_415
REMARK  109  A    between atoms: _276  and  _278
REMARK  110  A    between atoms: _278  and  _279
REMARK  111  A    between atoms: _281  and  _283
REMARK  112  A    between atoms: _283  and  _284
REMARK  113  A    between atoms: _283  and  _286
REMARK  114  A    between atoms: _286  and  _287
REMARK  115  A    between atoms: _290  and  _292
REMARK  116  A    between atoms: _292  and  _293
REMARK  117  A    between atoms: _292  and  _295
REMARK  118  A    between atoms: _295  and  _296
REMARK  119  A    between atoms: _296  and  _297
REMARK  120  A    between atoms: _299  and  _301
REMARK  121  A    between atoms: _301  and  _302
REMARK  122  A    between atoms: _301  and  _304
REMARK  123  A    between atoms: _304  and  _305
REMARK  124  A    between atoms: _310  and  _312
REMARK  125  A    between atoms: _312  and  _313
REMARK  126  A    between atoms: _312  and  _315
REMARK  127  A    between atoms: _315  and  _316
REMARK  128  A    between atoms: _319  and  _321
REMARK  129  A    between atoms: _321  and  _322
REMARK  130  A    between atoms: _321  and  _324
REMARK  131  A    between atoms: _324  and  _325
REMARK  132  A    between atoms: _328  and  _330
REMARK  133  A    between atoms: _330  and  _331
REMARK  134  A    between atoms: _330  and  _333
REMARK  135  A    between atoms: _333  and  _334
REMARK  136  A    between atoms: _337  and  _339
REMARK  137  A    between atoms: _339  and  _340
REMARK  138  A    between atoms: _339  and  _342
REMARK  139  A    between atoms: _342  and  _343
REMARK  140  A    between atoms: _343  and  _344
REMARK  141  A    between atoms: _344  and  _345
REMARK  142  A    between atoms: _345  and  CO_415
REMARK  143  A    between atoms: _347  and  _349
REMARK  144  A    between atoms: _349  and  _350
REMARK  145  A    between atoms: _349  and  _352
REMARK  146  A    between atoms: _352  and  _353
REMARK  147  A    between atoms: _353  and  _354
REMARK  148  A    between atoms: _356  and  _358
REMARK  149  A    between atoms: _358  and  _359
REMARK  150  A    between atoms: _358  and  _361
REMARK  151  A    between atoms: _361  and  _362
REMARK  152  A    between atoms: _372  and  _374
REMARK  153  A    between atoms: _374  and  _375
REMARK  154  A    between atoms: _374  and  _377
REMARK  155  A    between atoms: _377  and  _378
REMARK  156  A    between atoms: _378  and  _379
REMARK  157  A    between atoms: _384  and  _386
REMARK  158  A    between atoms: _386  and  _387
REMARK  159  A    between atoms: _386  and  _389
REMARK  160  A    between atoms: _389  and  _390
REMARK  161  A    between atoms: _396  and  _398
REMARK  162  A    between atoms: _398  and  _399
REMARK  163  A    between atoms: _398  and  _401
REMARK  164  A    between atoms: _401  and  _402
REMARK  165  A    between atoms: _402  and  _403
REMARK  166  A    between atoms: _406  and  _408
REMARK  167  A    between atoms: _408  and  _409
REMARK  168  A    between atoms: _408  and  _411
REMARK  169  A    between atoms: _411  and  _412
REMARK                            x       y       z     vdW  Elec       q    Type
REMARK                         _______ _______ _______ _____ _____    ______ ____
ROOT
ATOM      1  O   HOH     1      16.648  -2.817  16.641  0.00  0.00    +0.000 OA
ENDROOT
TORSDOF 0
REMARK  Name = ../refined-set-2016/4u73/4u73_pocket.pdb
REMARK  169 active torsions:
REMARK  status: ('A' for Active; 'I' for Inactive)
REMARK    1  A    between atoms: _1  and  _3
REMARK    2  A    between atoms: _3  and  _4
REMARK    3  A    between atoms: _3  and  _6
REMARK    4  A    between atoms: _6  and  _7
REMARK    5  A    between atoms: _12  and  _13
REMARK    6  A    between atoms: _16  and  _17
REMARK    7  A    between atoms: _22  and  _24
REMARK    8  A    between atoms: _24  and  _25
REMARK    9  A    between atoms: _24  and  _27
REMARK   10  A    between atoms: _27  and  _28
REMARK   11  A    between atoms: _31  and  _32
REMARK   12  A    between atoms: _37  and  _39
REMARK   13  A    between atoms: _39  and  _40
REMARK   14  A    between atoms: _39  and  _42
REMARK   15  A    between atoms: _42  and  _43
REMARK   16  A    between atoms: _46  and  _48
REMARK   17  A    between atoms: _48  and  _49
REMARK   18  A    between atoms: _48  and  _51
REMARK   19  A    between atoms: _51  and  _52
REMARK   20  A    between atoms: _57  and  _59
REMARK   21  A    between atoms: _59  and  _60
REMARK   22  A    between atoms: _59  and  _62
REMARK   23  A    between atoms: _62  and  _63
REMARK   24  A    between atoms: _68  and  _69
REMARK   25  A    between atoms: _71  and  _73
REMARK   26  A    between atoms: _73  and  _74
REMARK   27  A    between atoms: _73  and  _76
REMARK   28  A    between atoms: _76  and  _77
REMARK   29  A    between atoms: _82  and  _83
REMARK   30  A    between atoms: _85  and  _87
REMARK   31  A    between atoms: _87  and  _88
REMARK   32  A    between atoms: _87  and  _90
REMARK   33  A    between atoms: _90  and  _91
REMARK   34  A    between atoms: _97  and  _99
REMARK   35  A    between atoms: _99  and  _100
REMARK   36  A    between atoms: _99  and  _102
REMARK   37  A    between atoms: _102  and  _103
REMARK   38  A    between atoms: _103  and  _104
REMARK   39  A    between atoms: _104  and  _105
REMARK   40  A    between atoms: _105  and  _106
REMARK   41  A    between atoms: _110  and  _112
REMARK   42  A    between atoms: _112  and  _113
REMARK   43  A    between atoms: _112  and  _115
REMARK   44  A    between atoms: _115  and  _116
REMARK   45  A    between atoms: _118  and  _120
REMARK   46  A    between atoms: _120  and  _121
REMARK   47  A    between atoms: _120  and  _123
REMARK   48  A    between atoms: _125  and  _127
REMARK   49  A    between atoms: _127  and  _128
REMARK   50  A    between atoms: _127  and  _130
REMARK   51  A    between atoms: _132  and  _134
REMARK   52  A    between atoms: _134  and  _135
REMARK   53  A    between atoms: _134  and  _137
REMARK   54  A    between atoms: _139  and  _141
REMARK   55  A    between atoms: _141  and  _142
REMARK   56  A    between atoms: _141  and  _144
REMARK   57  A    between atoms: _144  and  _145
REMARK   58  A    between atoms: _150  and  _152
REMARK   59  A    between atoms: _152  and  _153
REMARK   60  A    between atoms: _152  and  _155
REMARK   61  A    between atoms: _155  and  _156
REMARK   62  A    between atoms: _161  and  _163
REMARK   63  A    between atoms: _163  and  _164
REMARK   64  A    between atoms: _163  and  _166
REMARK   65  A    between atoms: _169  and  _171
REMARK   66  A    between atoms: _171  and  _172
REMARK   67  A    between atoms: _171  and  _174
REMARK   68  A    between atoms: _174  and  _175
REMARK   69  A    between atoms: _178  and  _180
REMARK   70  A    between atoms: _180  and  _181
REMARK   71  A    between atoms: _180  and  _183
REMARK   72  A    between atoms: _183  and  _184
REMARK   73  A    between atoms: _187  and  _189
REMARK   74  A    between atoms: _189  and  _190
REMARK   75  A    between atoms: _189  and  _192
REMARK   76  A    between atoms: _192  and  _193
REMARK   77  A    between atoms: _196  and  _198
REMARK   78  A    between atoms: _198  and  _199
REMARK   79  A    between atoms: _198  and  _201
REMARK   80  A    between atoms: _201  and  _202
REMARK   81  A    between atoms: _205  and  _207
REMARK   82  A    between atoms: _207  and  _208
REMARK   83  A    between atoms: _210  and  _212
REMARK   84  A    between atoms: _212  and  _213
REMARK   85  A    between atoms: _212  and  _215
REMARK   86  A    between atoms: _219  and  _221
REMARK   87  A    between atoms: _221  and  _222
REMARK   88  A    between atoms: _221  and  _224
REMARK   89  A    between atoms: _224  and  _225
REMARK   90  A    between atoms: _228  and  _230
REMARK   91  A    between atoms: _230  and  _231
REMARK   92  A    between atoms: _230  and  _233
REMARK   93  A    between atoms: _233  and  _234
REMARK   94  A    between atoms: _239  and  _241
REMARK   95  A    between atoms: _241  and  _242
REMARK   96  A    between atoms: _241  and  _244
REMARK   97  A    between atoms: _244  and  _245
REMARK   98  A    between atoms: _250  and  _251
REMARK   99  A    between atoms: _253  and  _255
REMARK  100  A    between atoms: _255  and  _256
REMARK  101  A    between atoms: _255  and  _258
REMARK  102  A    between atoms: _260  and  _262
REMARK  103  A    between atoms: _262  and  _263
REMARK  104  A    between atoms: _265  and  _267
REMARK  105  A    between atoms: _267  and  _268
REMARK  106  A    between atoms: _267  and  _270
REMARK  107  A    between atoms: _270  and  _271
REMARK  108  A    between atoms: _275  and  CO_415
REMARK  109  A    between atoms: _276  and  _278
REMARK  110  A    between atoms: _278  and  _279
REMARK  111  A    between atoms: _281  and  _283
REMARK  112  A    between atoms: _283  and  _284
REMARK  113  A    between atoms: _283  and  _286
REMARK  114  A    between atoms: _286  and  _287
REMARK  115  A    between atoms: _290  and  _292
REMARK  116  A    between atoms: _292  and  _293
REMARK  117  A    between atoms: _292  and  _295
REMARK  118  A    between atoms: _295  and  _296
REMARK  119  A    between atoms: _296  and  _297
REMARK  120  A    between atoms: _299  and  _301
REMARK  121  A    between atoms: _301  and  _302
REMARK  122  A    between atoms: _301  and  _304
REMARK  123  A    between atoms: _304  and  _305
REMARK  124  A    between atoms: _310  and  _312
REMARK  125  A    between atoms: _312  and  _313
REMARK  126  A    between atoms: _312  and  _315
REMARK  127  A    between atoms: _315  and  _316
REMARK  128  A    between atoms: _319  and  _321
REMARK  129  A    between atoms: _321  and  _322
REMARK  130  A    between atoms: _321  and  _324
REMARK  131  A    between atoms: _324  and  _325
REMARK  132  A    between atoms: _328  and  _330
REMARK  133  A    between atoms: _330  and  _331
REMARK  134  A    between atoms: _330  and  _333
REMARK  135  A    between atoms: _333  and  _334
REMARK  136  A    between atoms: _337  and  _339
REMARK  137  A    between atoms: _339  and  _340
REMARK  138  A    between atoms: _339  and  _342
REMARK  139  A    between atoms: _342  and  _343
REMARK  140  A    between atoms: _343  and  _344
REMARK  141  A    between atoms: _344  and  _345
REMARK  142  A    between atoms: _345  and  CO_415
REMARK  143  A    between atoms: _347  and  _349
REMARK  144  A    between atoms: _349  and  _350
REMARK  145  A    between atoms: _349  and  _352
REMARK  146  A    between atoms: _352  and  _353
REMARK  147  A    between atoms: _353  and  _354
REMARK  148  A    between atoms: _356  and  _358
REMARK  149  A    between atoms: _358  and  _359
REMARK  150  A    between atoms: _358  and  _361
REMARK  151  A    between atoms: _361  and  _362
REMARK  152  A    between atoms: _372  and  _374
REMARK  153  A    between atoms: _374  and  _375
REMARK  154  A    between atoms: _374  and  _377
REMARK  155  A    between atoms: _377  and  _378
REMARK  156  A    between atoms: _378  and  _379
REMARK  157  A    between atoms: _384  and  _386
REMARK  158  A    between atoms: _386  and  _387
REMARK  159  A    between atoms: _386  and  _389
REMARK  160  A    between atoms: _389  and  _390
REMARK  161  A    between atoms: _396  and  _398
REMARK  162  A    between atoms: _398  and  _399
REMARK  163  A    between atoms: _398  and  _401
REMARK  164  A    between atoms: _401  and  _402
REMARK  165  A    between atoms: _402  and  _403
REMARK  166  A    between atoms: _406  and  _408
REMARK  167  A    between atoms: _408  and  _409
REMARK  168  A    between atoms: _408  and  _411
REMARK  169  A    between atoms: _411  and  _412
REMARK                            x       y       z     vdW  Elec       q    Type
REMARK                         _______ _______ _______ _____ _____    ______ ____
ROOT
ATOM      1  O   HOH     1      17.724  -1.800  13.215  0.00  0.00    +0.000 OA
ENDROOT
TORSDOF 0
REMARK  Name = ../refined-set-2016/4u73/4u73_pocket.pdb
REMARK  169 active torsions:
REMARK  status: ('A' for Active; 'I' for Inactive)
REMARK    1  A    between atoms: _1  and  _3
REMARK    2  A    between atoms: _3  and  _4
REMARK    3  A    between atoms: _3  and  _6
REMARK    4  A    between atoms: _6  and  _7
REMARK    5  A    between atoms: _12  and  _13
REMARK    6  A    between atoms: _16  and  _17
REMARK    7  A    between atoms: _22  and  _24
REMARK    8  A    between atoms: _24  and  _25
REMARK    9  A    between atoms: _24  and  _27
REMARK   10  A    between atoms: _27  and  _28
REMARK   11  A    between atoms: _31  and  _32
REMARK   12  A    between atoms: _37  and  _39
REMARK   13  A    between atoms: _39  and  _40
REMARK   14  A    between atoms: _39  and  _42
REMARK   15  A    between atoms: _42  and  _43
REMARK   16  A    between atoms: _46  and  _48
REMARK   17  A    between atoms: _48  and  _49
REMARK   18  A    between atoms: _48  and  _51
REMARK   19  A    between atoms: _51  and  _52
REMARK   20  A    between atoms: _57  and  _59
REMARK   21  A    between atoms: _59  and  _60
REMARK   22  A    between atoms: _59  and  _62
REMARK   23  A    between atoms: _62  and  _63
REMARK   24  A    between atoms: _68  and  _69
REMARK   25  A    between atoms: _71  and  _73
REMARK   26  A    between atoms: _73  and  _74
REMARK   27  A    between atoms: _73  and  _76
REMARK   28  A    between atoms: _76  and  _77
REMARK   29  A    between atoms: _82  and  _83
REMARK   30  A    between atoms: _85  and  _87
REMARK   31  A    between atoms: _87  and  _88
REMARK   32  A    between atoms: _87  and  _90
REMARK   33  A    between atoms: _90  and  _91
REMARK   34  A    between atoms: _97  and  _99
REMARK   35  A    between atoms: _99  and  _100
REMARK   36  A    between atoms: _99  and  _102
REMARK   37  A    between atoms: _102  and  _103
REMARK   38  A    between atoms: _103  and  _104
REMARK   39  A    between atoms: _104  and  _105
REMARK   40  A    between atoms: _105  and  _106
REMARK   41  A    between atoms: _110  and  _112
REMARK   42  A    between atoms: _112  and  _113
REMARK   43  A    between atoms: _112  and  _115
REMARK   44  A    between atoms: _115  and  _116
REMARK   45  A    between atoms: _118  and  _120
REMARK   46  A    between atoms: _120  and  _121
REMARK   47  A    between atoms: _120  and  _123
REMARK   48  A    between atoms: _125  and  _127
REMARK   49  A    between atoms: _127  and  _128
REMARK   50  A    between atoms: _127  and  _130
REMARK   51  A    between atoms: _132  and  _134
REMARK   52  A    between atoms: _134  and  _135
REMARK   53  A    between atoms: _134  and  _137
REMARK   54  A    between atoms: _139  and  _141
REMARK   55  A    between atoms: _141  and  _142
REMARK   56  A    between atoms: _141  and  _144
REMARK   57  A    between atoms: _144  and  _145
REMARK   58  A    between atoms: _150  and  _152
REMARK   59  A    between atoms: _152  and  _153
REMARK   60  A    between atoms: _152  and  _155
REMARK   61  A    between atoms: _155  and  _156
REMARK   62  A    between atoms: _161  and  _163
REMARK   63  A    between atoms: _163  and  _164
REMARK   64  A    between atoms: _163  and  _166
REMARK   65  A    between atoms: _169  and  _171
REMARK   66  A    between atoms: _171  and  _172
REMARK   67  A    between atoms: _171  and  _174
REMARK   68  A    between atoms: _174  and  _175
REMARK   69  A    between atoms: _178  and  _180
REMARK   70  A    between atoms: _180  and  _181
REMARK   71  A    between atoms: _180  and  _183
REMARK   72  A    between atoms: _183  and  _184
REMARK   73  A    between atoms: _187  and  _189
REMARK   74  A    between atoms: _189  and  _190
REMARK   75  A    between atoms: _189  and  _192
REMARK   76  A    between atoms: _192  and  _193
REMARK   77  A    between atoms: _196  and  _198
REMARK   78  A    between atoms: _198  and  _199
REMARK   79  A    between atoms: _198  and  _201
REMARK   80  A    between atoms: _201  and  _202
REMARK   81  A    between atoms: _205  and  _207
REMARK   82  A    between atoms: _207  and  _208
REMARK   83  A    between atoms: _210  and  _212
REMARK   84  A    between atoms: _212  and  _213
REMARK   85  A    between atoms: _212  and  _215
REMARK   86  A    between atoms: _219  and  _221
REMARK   87  A    between atoms: _221  and  _222
REMARK   88  A    between atoms: _221  and  _224
REMARK   89  A    between atoms: _224  and  _225
REMARK   90  A    between atoms: _228  and  _230
REMARK   91  A    between atoms: _230  and  _231
REMARK   92  A    between atoms: _230  and  _233
REMARK   93  A    between atoms: _233  and  _234
REMARK   94  A    between atoms: _239  and  _241
REMARK   95  A    between atoms: _241  and  _242
REMARK   96  A    between atoms: _241  and  _244
REMARK   97  A    between atoms: _244  and  _245
REMARK   98  A    between atoms: _250  and  _251
REMARK   99  A    between atoms: _253  and  _255
REMARK  100  A    between atoms: _255  and  _256
REMARK  101  A    between atoms: _255  and  _258
REMARK  102  A    between atoms: _260  and  _262
REMARK  103  A    between atoms: _262  and  _263
REMARK  104  A    between atoms: _265  and  _267
REMARK  105  A    between atoms: _267  and  _268
REMARK  106  A    between atoms: _267  and  _270
REMARK  107  A    between atoms: _270  and  _271
REMARK  108  A    between atoms: _275  and  CO_415
REMARK  109  A    between atoms: _276  and  _278
REMARK  110  A    between atoms: _278  and  _279
REMARK  111  A    between atoms: _281  and  _283
REMARK  112  A    between atoms: _283  and  _284
REMARK  113  A    between atoms: _283  and  _286
REMARK  114  A    between atoms: _286  and  _287
REMARK  115  A    between atoms: _290  and  _292
REMARK  116  A    between atoms: _292  and  _293
REMARK  117  A    between atoms: _292  and  _295
REMARK  118  A    between atoms: _295  and  _296
REMARK  119  A    between atoms: _296  and  _297
REMARK  120  A    between atoms: _299  and  _301
REMARK  121  A    between atoms: _301  and  _302
REMARK  122  A    between atoms: _301  and  _304
REMARK  123  A    between atoms: _304  and  _305
REMARK  124  A    between atoms: _310  and  _312
REMARK  125  A    between atoms: _312  and  _313
REMARK  126  A    between atoms: _312  and  _315
REMARK  127  A    between atoms: _315  and  _316
REMARK  128  A    between atoms: _319  and  _321
REMARK  129  A    between atoms: _321  and  _322
REMARK  130  A    between atoms: _321  and  _324
REMARK  131  A    between atoms: _324  and  _325
REMARK  132  A    between atoms: _328  and  _330
REMARK  133  A    between atoms: _330  and  _331
REMARK  134  A    between atoms: _330  and  _333
REMARK  135  A    between atoms: _333  and  _334
REMARK  136  A    between atoms: _337  and  _339
REMARK  137  A    between atoms: _339  and  _340
REMARK  138  A    between atoms: _339  and  _342
REMARK  139  A    between atoms: _342  and  _343
REMARK  140  A    between atoms: _343  and  _344
REMARK  141  A    between atoms: _344  and  _345
REMARK  142  A    between atoms: _345  and  CO_415
REMARK  143  A    between atoms: _347  and  _349
REMARK  144  A    between atoms: _349  and  _350
REMARK  145  A    between atoms: _349  and  _352
REMARK  146  A    between atoms: _352  and  _353
REMARK  147  A    between atoms: _353  and  _354
REMARK  148  A    between atoms: _356  and  _358
REMARK  149  A    between atoms: _358  and  _359
REMARK  150  A    between atoms: _358  and  _361
REMARK  151  A    between atoms: _361  and  _362
REMARK  152  A    between atoms: _372  and  _374
REMARK  153  A    between atoms: _374  and  _375
REMARK  154  A    between atoms: _374  and  _377
REMARK  155  A    between atoms: _377  and  _378
REMARK  156  A    between atoms: _378  and  _379
REMARK  157  A    between atoms: _384  and  _386
REMARK  158  A    between atoms: _386  and  _387
REMARK  159  A    between atoms: _386  and  _389
REMARK  160  A    between atoms: _389  and  _390
REMARK  161  A    between atoms: _396  and  _398
REMARK  162  A    between atoms: _398  and  _399
REMARK  163  A    between atoms: _398  and  _401
REMARK  164  A    between atoms: _401  and  _402
REMARK  165  A    between atoms: _402  and  _403
REMARK  166  A    between atoms: _406  and  _408
REMARK  167  A    between atoms: _408  and  _409
REMARK  168  A    between atoms: _408  and  _411
REMARK  169  A    between atoms: _411  and  _412
REMARK                            x       y       z     vdW  Elec       q    Type
REMARK                         _______ _______ _______ _____ _____    ______ ____
ROOT
ATOM      1  O   HOH     1      19.672  -3.440  13.921  0.00  0.00    +0.000 OA
ENDROOT
TORSDOF 0
REMARK  Name = ../refined-set-2016/4u73/4u73_pocket.pdb
REMARK  169 active torsions:
REMARK  status: ('A' for Active; 'I' for Inactive)
REMARK    1  A    between atoms: _1  and  _3
REMARK    2  A    between atoms: _3  and  _4
REMARK    3  A    between atoms: _3  and  _6
REMARK    4  A    between atoms: _6  and  _7
REMARK    5  A    between atoms: _12  and  _13
REMARK    6  A    between atoms: _16  and  _17
REMARK    7  A    between atoms: _22  and  _24
REMARK    8  A    between atoms: _24  and  _25
REMARK    9  A    between atoms: _24  and  _27
REMARK   10  A    between atoms: _27  and  _28
REMARK   11  A    between atoms: _31  and  _32
REMARK   12  A    between atoms: _37  and  _39
REMARK   13  A    between atoms: _39  and  _40
REMARK   14  A    between atoms: _39  and  _42
REMARK   15  A    between atoms: _42  and  _43
REMARK   16  A    between atoms: _46  and  _48
REMARK   17  A    between atoms: _48  and  _49
REMARK   18  A    between atoms: _48  and  _51
REMARK   19  A    between atoms: _51  and  _52
REMARK   20  A    between atoms: _57  and  _59
REMARK   21  A    between atoms: _59  and  _60
REMARK   22  A    between atoms: _59  and  _62
REMARK   23  A    between atoms: _62  and  _63
REMARK   24  A    between atoms: _68  and  _69
REMARK   25  A    between atoms: _71  and  _73
REMARK   26  A    between atoms: _73  and  _74
REMARK   27  A    between atoms: _73  and  _76
REMARK   28  A    between atoms: _76  and  _77
REMARK   29  A    between atoms: _82  and  _83
REMARK   30  A    between atoms: _85  and  _87
REMARK   31  A    between atoms: _87  and  _88
REMARK   32  A    between atoms: _87  and  _90
REMARK   33  A    between atoms: _90  and  _91
REMARK   34  A    between atoms: _97  and  _99
REMARK   35  A    between atoms: _99  and  _100
REMARK   36  A    between atoms: _99  and  _102
REMARK   37  A    between atoms: _102  and  _103
REMARK   38  A    between atoms: _103  and  _104
REMARK   39  A    between atoms: _104  and  _105
REMARK   40  A    between atoms: _105  and  _106
REMARK   41  A    between atoms: _110  and  _112
REMARK   42  A    between atoms: _112  and  _113
REMARK   43  A    between atoms: _112  and  _115
REMARK   44  A    between atoms: _115  and  _116
REMARK   45  A    between atoms: _118  and  _120
REMARK   46  A    between atoms: _120  and  _121
REMARK   47  A    between atoms: _120  and  _123
REMARK   48  A    between atoms: _125  and  _127
REMARK   49  A    between atoms: _127  and  _128
REMARK   50  A    between atoms: _127  and  _130
REMARK   51  A    between atoms: _132  and  _134
REMARK   52  A    between atoms: _134  and  _135
REMARK   53  A    between atoms: _134  and  _137
REMARK   54  A    between atoms: _139  and  _141
REMARK   55  A    between atoms: _141  and  _142
REMARK   56  A    between atoms: _141  and  _144
REMARK   57  A    between atoms: _144  and  _145
REMARK   58  A    between atoms: _150  and  _152
REMARK   59  A    between atoms: _152  and  _153
REMARK   60  A    between atoms: _152  and  _155
REMARK   61  A    between atoms: _155  and  _156
REMARK   62  A    between atoms: _161  and  _163
REMARK   63  A    between atoms: _163  and  _164
REMARK   64  A    between atoms: _163  and  _166
REMARK   65  A    between atoms: _169  and  _171
REMARK   66  A    between atoms: _171  and  _172
REMARK   67  A    between atoms: _171  and  _174
REMARK   68  A    between atoms: _174  and  _175
REMARK   69  A    between atoms: _178  and  _180
REMARK   70  A    between atoms: _180  and  _181
REMARK   71  A    between atoms: _180  and  _183
REMARK   72  A    between atoms: _183  and  _184
REMARK   73  A    between atoms: _187  and  _189
REMARK   74  A    between atoms: _189  and  _190
REMARK   75  A    between atoms: _189  and  _192
REMARK   76  A    between atoms: _192  and  _193
REMARK   77  A    between atoms: _196  and  _198
REMARK   78  A    between atoms: _198  and  _199
REMARK   79  A    between atoms: _198  and  _201
REMARK   80  A    between atoms: _201  and  _202
REMARK   81  A    between atoms: _205  and  _207
REMARK   82  A    between atoms: _207  and  _208
REMARK   83  A    between atoms: _210  and  _212
REMARK   84  A    between atoms: _212  and  _213
REMARK   85  A    between atoms: _212  and  _215
REMARK   86  A    between atoms: _219  and  _221
REMARK   87  A    between atoms: _221  and  _222
REMARK   88  A    between atoms: _221  and  _224
REMARK   89  A    between atoms: _224  and  _225
REMARK   90  A    between atoms: _228  and  _230
REMARK   91  A    between atoms: _230  and  _231
REMARK   92  A    between atoms: _230  and  _233
REMARK   93  A    between atoms: _233  and  _234
REMARK   94  A    between atoms: _239  and  _241
REMARK   95  A    between atoms: _241  and  _242
REMARK   96  A    between atoms: _241  and  _244
REMARK   97  A    between atoms: _244  and  _245
REMARK   98  A    between atoms: _250  and  _251
REMARK   99  A    between atoms: _253  and  _255
REMARK  100  A    between atoms: _255  and  _256
REMARK  101  A    between atoms: _255  and  _258
REMARK  102  A    between atoms: _260  and  _262
REMARK  103  A    between atoms: _262  and  _263
REMARK  104  A    between atoms: _265  and  _267
REMARK  105  A    between atoms: _267  and  _268
REMARK  106  A    between atoms: _267  and  _270
REMARK  107  A    between atoms: _270  and  _271
REMARK  108  A    between atoms: _275  and  CO_415
REMARK  109  A    between atoms: _276  and  _278
REMARK  110  A    between atoms: _278  and  _279
REMARK  111  A    between atoms: _281  and  _283
REMARK  112  A    between atoms: _283  and  _284
REMARK  113  A    between atoms: _283  and  _286
REMARK  114  A    between atoms: _286  and  _287
REMARK  115  A    between atoms: _290  and  _292
REMARK  116  A    between atoms: _292  and  _293
REMARK  117  A    between atoms: _292  and  _295
REMARK  118  A    between atoms: _295  and  _296
REMARK  119  A    between atoms: _296  and  _297
REMARK  120  A    between atoms: _299  and  _301
REMARK  121  A    between atoms: _301  and  _302
REMARK  122  A    between atoms: _301  and  _304
REMARK  123  A    between atoms: _304  and  _305
REMARK  124  A    between atoms: _310  and  _312
REMARK  125  A    between atoms: _312  and  _313
REMARK  126  A    between atoms: _312  and  _315
REMARK  127  A    between atoms: _315  and  _316
REMARK  128  A    between atoms: _319  and  _321
REMARK  129  A    between atoms: _321  and  _322
REMARK  130  A    between atoms: _321  and  _324
REMARK  131  A    between atoms: _324  and  _325
REMARK  132  A    between atoms: _328  and  _330
REMARK  133  A    between atoms: _330  and  _331
REMARK  134  A    between atoms: _330  and  _333
REMARK  135  A    between atoms: _333  and  _334
REMARK  136  A    between atoms: _337  and  _339
REMARK  137  A    between atoms: _339  and  _340
REMARK  138  A    between atoms: _339  and  _342
REMARK  139  A    between atoms: _342  and  _343
REMARK  140  A    between atoms: _343  and  _344
REMARK  141  A    between atoms: _344  and  _345
REMARK  142  A    between atoms: _345  and  CO_415
REMARK  143  A    between atoms: _347  and  _349
REMARK  144  A    between atoms: _349  and  _350
REMARK  145  A    between atoms: _349  and  _352
REMARK  146  A    between atoms: _352  and  _353
REMARK  147  A    between atoms: _353  and  _354
REMARK  148  A    between atoms: _356  and  _358
REMARK  149  A    between atoms: _358  and  _359
REMARK  150  A    between atoms: _358  and  _361
REMARK  151  A    between atoms: _361  and  _362
REMARK  152  A    between atoms: _372  and  _374
REMARK  153  A    between atoms: _374  and  _375
REMARK  154  A    between atoms: _374  and  _377
REMARK  155  A    between atoms: _377  and  _378
REMARK  156  A    between atoms: _378  and  _379
REMARK  157  A    between atoms: _384  and  _386
REMARK  158  A    between atoms: _386  and  _387
REMARK  159  A    between atoms: _386  and  _389
REMARK  160  A    between atoms: _389  and  _390
REMARK  161  A    between atoms: _396  and  _398
REMARK  162  A    between atoms: _398  and  _399
REMARK  163  A    between atoms: _398  and  _401
REMARK  164  A    between atoms: _401  and  _402
REMARK  165  A    between atoms: _402  and  _403
REMARK  166  A    between atoms: _406  and  _408
REMARK  167  A    between atoms: _408  and  _409
REMARK  168  A    between atoms: _408  and  _411
REMARK  169  A    between atoms: _411  and  _412
REMARK                            x       y       z     vdW  Elec       q    Type
REMARK                         _______ _______ _______ _____ _____    ______ ____
ROOT
ATOM      1  O   HOH     1      19.499  -2.618   7.892  0.00  0.00    +0.000 OA
ENDROOT
TORSDOF 0
REMARK  Name = ../refined-set-2016/4u73/4u73_pocket.pdb
REMARK  169 active torsions:
REMARK  status: ('A' for Active; 'I' for Inactive)
REMARK    1  A    between atoms: _1  and  _3
REMARK    2  A    between atoms: _3  and  _4
REMARK    3  A    between atoms: _3  and  _6
REMARK    4  A    between atoms: _6  and  _7
REMARK    5  A    between atoms: _12  and  _13
REMARK    6  A    between atoms: _16  and  _17
REMARK    7  A    between atoms: _22  and  _24
REMARK    8  A    between atoms: _24  and  _25
REMARK    9  A    between atoms: _24  and  _27
REMARK   10  A    between atoms: _27  and  _28
REMARK   11  A    between atoms: _31  and  _32
REMARK   12  A    between atoms: _37  and  _39
REMARK   13  A    between atoms: _39  and  _40
REMARK   14  A    between atoms: _39  and  _42
REMARK   15  A    between atoms: _42  and  _43
REMARK   16  A    between atoms: _46  and  _48
REMARK   17  A    between atoms: _48  and  _49
REMARK   18  A    between atoms: _48  and  _51
REMARK   19  A    between atoms: _51  and  _52
REMARK   20  A    between atoms: _57  and  _59
REMARK   21  A    between atoms: _59  and  _60
REMARK   22  A    between atoms: _59  and  _62
REMARK   23  A    between atoms: _62  and  _63
REMARK   24  A    between atoms: _68  and  _69
REMARK   25  A    between atoms: _71  and  _73
REMARK   26  A    between atoms: _73  and  _74
REMARK   27  A    between atoms: _73  and  _76
REMARK   28  A    between atoms: _76  and  _77
REMARK   29  A    between atoms: _82  and  _83
REMARK   30  A    between atoms: _85  and  _87
REMARK   31  A    between atoms: _87  and  _88
REMARK   32  A    between atoms: _87  and  _90
REMARK   33  A    between atoms: _90  and  _91
REMARK   34  A    between atoms: _97  and  _99
REMARK   35  A    between atoms: _99  and  _100
REMARK   36  A    between atoms: _99  and  _102
REMARK   37  A    between atoms: _102  and  _103
REMARK   38  A    between atoms: _103  and  _104
REMARK   39  A    between atoms: _104  and  _105
REMARK   40  A    between atoms: _105  and  _106
REMARK   41  A    between atoms: _110  and  _112
REMARK   42  A    between atoms: _112  and  _113
REMARK   43  A    between atoms: _112  and  _115
REMARK   44  A    between atoms: _115  and  _116
REMARK   45  A    between atoms: _118  and  _120
REMARK   46  A    between atoms: _120  and  _121
REMARK   47  A    between atoms: _120  and  _123
REMARK   48  A    between atoms: _125  and  _127
REMARK   49  A    between atoms: _127  and  _128
REMARK   50  A    between atoms: _127  and  _130
REMARK   51  A    between atoms: _132  and  _134
REMARK   52  A    between atoms: _134  and  _135
REMARK   53  A    between atoms: _134  and  _137
REMARK   54  A    between atoms: _139  and  _141
REMARK   55  A    between atoms: _141  and  _142
REMARK   56  A    between atoms: _141  and  _144
REMARK   57  A    between atoms: _144  and  _145
REMARK   58  A    between atoms: _150  and  _152
REMARK   59  A    between atoms: _152  and  _153
REMARK   60  A    between atoms: _152  and  _155
REMARK   61  A    between atoms: _155  and  _156
REMARK   62  A    between atoms: _161  and  _163
REMARK   63  A    between atoms: _163  and  _164
REMARK   64  A    between atoms: _163  and  _166
REMARK   65  A    between atoms: _169  and  _171
REMARK   66  A    between atoms: _171  and  _172
REMARK   67  A    between atoms: _171  and  _174
REMARK   68  A    between atoms: _174  and  _175
REMARK   69  A    between atoms: _178  and  _180
REMARK   70  A    between atoms: _180  and  _181
REMARK   71  A    between atoms: _180  and  _183
REMARK   72  A    between atoms: _183  and  _184
REMARK   73  A    between atoms: _187  and  _189
REMARK   74  A    between atoms: _189  and  _190
REMARK   75  A    between atoms: _189  and  _192
REMARK   76  A    between atoms: _192  and  _193
REMARK   77  A    between atoms: _196  and  _198
REMARK   78  A    between atoms: _198  and  _199
REMARK   79  A    between atoms: _198  and  _201
REMARK   80  A    between atoms: _201  and  _202
REMARK   81  A    between atoms: _205  and  _207
REMARK   82  A    between atoms: _207  and  _208
REMARK   83  A    between atoms: _210  and  _212
REMARK   84  A    between atoms: _212  and  _213
REMARK   85  A    between atoms: _212  and  _215
REMARK   86  A    between atoms: _219  and  _221
REMARK   87  A    between atoms: _221  and  _222
REMARK   88  A    between atoms: _221  and  _224
REMARK   89  A    between atoms: _224  and  _225
REMARK   90  A    between atoms: _228  and  _230
REMARK   91  A    between atoms: _230  and  _231
REMARK   92  A    between atoms: _230  and  _233
REMARK   93  A    between atoms: _233  and  _234
REMARK   94  A    between atoms: _239  and  _241
REMARK   95  A    between atoms: _241  and  _242
REMARK   96  A    between atoms: _241  and  _244
REMARK   97  A    between atoms: _244  and  _245
REMARK   98  A    between atoms: _250  and  _251
REMARK   99  A    between atoms: _253  and  _255
REMARK  100  A    between atoms: _255  and  _256
REMARK  101  A    between atoms: _255  and  _258
REMARK  102  A    between atoms: _260  and  _262
REMARK  103  A    between atoms: _262  and  _263
REMARK  104  A    between atoms: _265  and  _267
REMARK  105  A    between atoms: _267  and  _268
REMARK  106  A    between atoms: _267  and  _270
REMARK  107  A    between atoms: _270  and  _271
REMARK  108  A    between atoms: _275  and  CO_415
REMARK  109  A    between atoms: _276  and  _278
REMARK  110  A    between atoms: _278  and  _279
REMARK  111  A    between atoms: _281  and  _283
REMARK  112  A    between atoms: _283  and  _284
REMARK  113  A    between atoms: _283  and  _286
REMARK  114  A    between atoms: _286  and  _287
REMARK  115  A    between atoms: _290  and  _292
REMARK  116  A    between atoms: _292  and  _293
REMARK  117  A    between atoms: _292  and  _295
REMARK  118  A    between atoms: _295  and  _296
REMARK  119  A    between atoms: _296  and  _297
REMARK  120  A    between atoms: _299  and  _301
REMARK  121  A    between atoms: _301  and  _302
REMARK  122  A    between atoms: _301  and  _304
REMARK  123  A    between atoms: _304  and  _305
REMARK  124  A    between atoms: _310  and  _312
REMARK  125  A    between atoms: _312  and  _313
REMARK  126  A    between atoms: _312  and  _315
REMARK  127  A    between atoms: _315  and  _316
REMARK  128  A    between atoms: _319  and  _321
REMARK  129  A    between atoms: _321  and  _322
REMARK  130  A    between atoms: _321  and  _324
REMARK  131  A    between atoms: _324  and  _325
REMARK  132  A    between atoms: _328  and  _330
REMARK  133  A    between atoms: _330  and  _331
REMARK  134  A    between atoms: _330  and  _333
REMARK  135  A    between atoms: _333  and  _334
REMARK  136  A    between atoms: _337  and  _339
REMARK  137  A    between atoms: _339  and  _340
REMARK  138  A    between atoms: _339  and  _342
REMARK  139  A    between atoms: _342  and  _343
REMARK  140  A    between atoms: _343  and  _344
REMARK  141  A    between atoms: _344  and  _345
REMARK  142  A    between atoms: _345  and  CO_415
REMARK  143  A    between atoms: _347  and  _349
REMARK  144  A    between atoms: _349  and  _350
REMARK  145  A    between atoms: _349  and  _352
REMARK  146  A    between atoms: _352  and  _353
REMARK  147  A    between atoms: _353  and  _354
REMARK  148  A    between atoms: _356  and  _358
REMARK  149  A    between atoms: _358  and  _359
REMARK  150  A    between atoms: _358  and  _361
REMARK  151  A    between atoms: _361  and  _362
REMARK  152  A    between atoms: _372  and  _374
REMARK  153  A    between atoms: _374  and  _375
REMARK  154  A    between atoms: _374  and  _377
REMARK  155  A    between atoms: _377  and  _378
REMARK  156  A    between atoms: _378  and  _379
REMARK  157  A    between atoms: _384  and  _386
REMARK  158  A    between atoms: _386  and  _387
REMARK  159  A    between atoms: _386  and  _389
REMARK  160  A    between atoms: _389  and  _390
REMARK  161  A    between atoms: _396  and  _398
REMARK  162  A    between atoms: _398  and  _399
REMARK  163  A    between atoms: _398  and  _401
REMARK  164  A    between atoms: _401  and  _402
REMARK  165  A    between atoms: _402  and  _403
REMARK  166  A    between atoms: _406  and  _408
REMARK  167  A    between atoms: _408  and  _409
REMARK  168  A    between atoms: _408  and  _411
REMARK  169  A    between atoms: _411  and  _412
REMARK                            x       y       z     vdW  Elec       q    Type
REMARK                         _______ _______ _______ _____ _____    ______ ____
ROOT
ATOM      1  O   HOH     1      17.762  -2.356  10.408  0.00  0.00    +0.000 OA
ENDROOT
TORSDOF 0
REMARK  Name = ../refined-set-2016/4u73/4u73_pocket.pdb
REMARK  169 active torsions:
REMARK  status: ('A' for Active; 'I' for Inactive)
REMARK    1  A    between atoms: _1  and  _3
REMARK    2  A    between atoms: _3  and  _4
REMARK    3  A    between atoms: _3  and  _6
REMARK    4  A    between atoms: _6  and  _7
REMARK    5  A    between atoms: _12  and  _13
REMARK    6  A    between atoms: _16  and  _17
REMARK    7  A    between atoms: _22  and  _24
REMARK    8  A    between atoms: _24  and  _25
REMARK    9  A    between atoms: _24  and  _27
REMARK   10  A    between atoms: _27  and  _28
REMARK   11  A    between atoms: _31  and  _32
REMARK   12  A    between atoms: _37  and  _39
REMARK   13  A    between atoms: _39  and  _40
REMARK   14  A    between atoms: _39  and  _42
REMARK   15  A    between atoms: _42  and  _43
REMARK   16  A    between atoms: _46  and  _48
REMARK   17  A    between atoms: _48  and  _49
REMARK   18  A    between atoms: _48  and  _51
REMARK   19  A    between atoms: _51  and  _52
REMARK   20  A    between atoms: _57  and  _59
REMARK   21  A    between atoms: _59  and  _60
REMARK   22  A    between atoms: _59  and  _62
REMARK   23  A    between atoms: _62  and  _63
REMARK   24  A    between atoms: _68  and  _69
REMARK   25  A    between atoms: _71  and  _73
REMARK   26  A    between atoms: _73  and  _74
REMARK   27  A    between atoms: _73  and  _76
REMARK   28  A    between atoms: _76  and  _77
REMARK   29  A    between atoms: _82  and  _83
REMARK   30  A    between atoms: _85  and  _87
REMARK   31  A    between atoms: _87  and  _88
REMARK   32  A    between atoms: _87  and  _90
REMARK   33  A    between atoms: _90  and  _91
REMARK   34  A    between atoms: _97  and  _99
REMARK   35  A    between atoms: _99  and  _100
REMARK   36  A    between atoms: _99  and  _102
REMARK   37  A    between atoms: _102  and  _103
REMARK   38  A    between atoms: _103  and  _104
REMARK   39  A    between atoms: _104  and  _105
REMARK   40  A    between atoms: _105  and  _106
REMARK   41  A    between atoms: _110  and  _112
REMARK   42  A    between atoms: _112  and  _113
REMARK   43  A    between atoms: _112  and  _115
REMARK   44  A    between atoms: _115  and  _116
REMARK   45  A    between atoms: _118  and  _120
REMARK   46  A    between atoms: _120  and  _121
REMARK   47  A    between atoms: _120  and  _123
REMARK   48  A    between atoms: _125  and  _127
REMARK   49  A    between atoms: _127  and  _128
REMARK   50  A    between atoms: _127  and  _130
REMARK   51  A    between atoms: _132  and  _134
REMARK   52  A    between atoms: _134  and  _135
REMARK   53  A    between atoms: _134  and  _137
REMARK   54  A    between atoms: _139  and  _141
REMARK   55  A    between atoms: _141  and  _142
REMARK   56  A    between atoms: _141  and  _144
REMARK   57  A    between atoms: _144  and  _145
REMARK   58  A    between atoms: _150  and  _152
REMARK   59  A    between atoms: _152  and  _153
REMARK   60  A    between atoms: _152  and  _155
REMARK   61  A    between atoms: _155  and  _156
REMARK   62  A    between atoms: _161  and  _163
REMARK   63  A    between atoms: _163  and  _164
REMARK   64  A    between atoms: _163  and  _166
REMARK   65  A    between atoms: _169  and  _171
REMARK   66  A    between atoms: _171  and  _172
REMARK   67  A    between atoms: _171  and  _174
REMARK   68  A    between atoms: _174  and  _175
REMARK   69  A    between atoms: _178  and  _180
REMARK   70  A    between atoms: _180  and  _181
REMARK   71  A    between atoms: _180  and  _183
REMARK   72  A    between atoms: _183  and  _184
REMARK   73  A    between atoms: _187  and  _189
REMARK   74  A    between atoms: _189  and  _190
REMARK   75  A    between atoms: _189  and  _192
REMARK   76  A    between atoms: _192  and  _193
REMARK   77  A    between atoms: _196  and  _198
REMARK   78  A    between atoms: _198  and  _199
REMARK   79  A    between atoms: _198  and  _201
REMARK   80  A    between atoms: _201  and  _202
REMARK   81  A    between atoms: _205  and  _207
REMARK   82  A    between atoms: _207  and  _208
REMARK   83  A    between atoms: _210  and  _212
REMARK   84  A    between atoms: _212  and  _213
REMARK   85  A    between atoms: _212  and  _215
REMARK   86  A    between atoms: _219  and  _221
REMARK   87  A    between atoms: _221  and  _222
REMARK   88  A    between atoms: _221  and  _224
REMARK   89  A    between atoms: _224  and  _225
REMARK   90  A    between atoms: _228  and  _230
REMARK   91  A    between atoms: _230  and  _231
REMARK   92  A    between atoms: _230  and  _233
REMARK   93  A    between atoms: _233  and  _234
REMARK   94  A    between atoms: _239  and  _241
REMARK   95  A    between atoms: _241  and  _242
REMARK   96  A    between atoms: _241  and  _244
REMARK   97  A    between atoms: _244  and  _245
REMARK   98  A    between atoms: _250  and  _251
REMARK   99  A    between atoms: _253  and  _255
REMARK  100  A    between atoms: _255  and  _256
REMARK  101  A    between atoms: _255  and  _258
REMARK  102  A    between atoms: _260  and  _262
REMARK  103  A    between atoms: _262  and  _263
REMARK  104  A    between atoms: _265  and  _267
REMARK  105  A    between atoms: _267  and  _268
REMARK  106  A    between atoms: _267  and  _270
REMARK  107  A    between atoms: _270  and  _271
REMARK  108  A    between atoms: _275  and  CO_415
REMARK  109  A    between atoms: _276  and  _278
REMARK  110  A    between atoms: _278  and  _279
REMARK  111  A    between atoms: _281  and  _283
REMARK  112  A    between atoms: _283  and  _284
REMARK  113  A    between atoms: _283  and  _286
REMARK  114  A    between atoms: _286  and  _287
REMARK  115  A    between atoms: _290  and  _292
REMARK  116  A    between atoms: _292  and  _293
REMARK  117  A    between atoms: _292  and  _295
REMARK  118  A    between atoms: _295  and  _296
REMARK  119  A    between atoms: _296  and  _297
REMARK  120  A    between atoms: _299  and  _301
REMARK  121  A    between atoms: _301  and  _302
REMARK  122  A    between atoms: _301  and  _304
REMARK  123  A    between atoms: _304  and  _305
REMARK  124  A    between atoms: _310  and  _312
REMARK  125  A    between atoms: _312  and  _313
REMARK  126  A    between atoms: _312  and  _315
REMARK  127  A    between atoms: _315  and  _316
REMARK  128  A    between atoms: _319  and  _321
REMARK  129  A    between atoms: _321  and  _322
REMARK  130  A    between atoms: _321  and  _324
REMARK  131  A    between atoms: _324  and  _325
REMARK  132  A    between atoms: _328  and  _330
REMARK  133  A    between atoms: _330  and  _331
REMARK  134  A    between atoms: _330  and  _333
REMARK  135  A    between atoms: _333  and  _334
REMARK  136  A    between atoms: _337  and  _339
REMARK  137  A    between atoms: _339  and  _340
REMARK  138  A    between atoms: _339  and  _342
REMARK  139  A    between atoms: _342  and  _343
REMARK  140  A    between atoms: _343  and  _344
REMARK  141  A    between atoms: _344  and  _345
REMARK  142  A    between atoms: _345  and  CO_415
REMARK  143  A    between atoms: _347  and  _349
REMARK  144  A    between atoms: _349  and  _350
REMARK  145  A    between atoms: _349  and  _352
REMARK  146  A    between atoms: _352  and  _353
REMARK  147  A    between atoms: _353  and  _354
REMARK  148  A    between atoms: _356  and  _358
REMARK  149  A    between atoms: _358  and  _359
REMARK  150  A    between atoms: _358  and  _361
REMARK  151  A    between atoms: _361  and  _362
REMARK  152  A    between atoms: _372  and  _374
REMARK  153  A    between atoms: _374  and  _375
REMARK  154  A    between atoms: _374  and  _377
REMARK  155  A    between atoms: _377  and  _378
REMARK  156  A    between atoms: _378  and  _379
REMARK  157  A    between atoms: _384  and  _386
REMARK  158  A    between atoms: _386  and  _387
REMARK  159  A    between atoms: _386  and  _389
REMARK  160  A    between atoms: _389  and  _390
REMARK  161  A    between atoms: _396  and  _398
REMARK  162  A    between atoms: _398  and  _399
REMARK  163  A    between atoms: _398  and  _401
REMARK  164  A    between atoms: _401  and  _402
REMARK  165  A    between atoms: _402  and  _403
REMARK  166  A    between atoms: _406  and  _408
REMARK  167  A    between atoms: _408  and  _409
REMARK  168  A    between atoms: _408  and  _411
REMARK  169  A    between atoms: _411  and  _412
REMARK                            x       y       z     vdW  Elec       q    Type
REMARK                         _______ _______ _______ _____ _____    ______ ____
ROOT
ATOM      1  O   HOH     1      19.928  -4.583   6.258  0.00  0.00    +0.000 OA
ENDROOT
TORSDOF 0
REMARK  Name = ../refined-set-2016/4u73/4u73_pocket.pdb
REMARK  169 active torsions:
REMARK  status: ('A' for Active; 'I' for Inactive)
REMARK    1  A    between atoms: _1  and  _3
REMARK    2  A    between atoms: _3  and  _4
REMARK    3  A    between atoms: _3  and  _6
REMARK    4  A    between atoms: _6  and  _7
REMARK    5  A    between atoms: _12  and  _13
REMARK    6  A    between atoms: _16  and  _17
REMARK    7  A    between atoms: _22  and  _24
REMARK    8  A    between atoms: _24  and  _25
REMARK    9  A    between atoms: _24  and  _27
REMARK   10  A    between atoms: _27  and  _28
REMARK   11  A    between atoms: _31  and  _32
REMARK   12  A    between atoms: _37  and  _39
REMARK   13  A    between atoms: _39  and  _40
REMARK   14  A    between atoms: _39  and  _42
REMARK   15  A    between atoms: _42  and  _43
REMARK   16  A    between atoms: _46  and  _48
REMARK   17  A    between atoms: _48  and  _49
REMARK   18  A    between atoms: _48  and  _51
REMARK   19  A    between atoms: _51  and  _52
REMARK   20  A    between atoms: _57  and  _59
REMARK   21  A    between atoms: _59  and  _60
REMARK   22  A    between atoms: _59  and  _62
REMARK   23  A    between atoms: _62  and  _63
REMARK   24  A    between atoms: _68  and  _69
REMARK   25  A    between atoms: _71  and  _73
REMARK   26  A    between atoms: _73  and  _74
REMARK   27  A    between atoms: _73  and  _76
REMARK   28  A    between atoms: _76  and  _77
REMARK   29  A    between atoms: _82  and  _83
REMARK   30  A    between atoms: _85  and  _87
REMARK   31  A    between atoms: _87  and  _88
REMARK   32  A    between atoms: _87  and  _90
REMARK   33  A    between atoms: _90  and  _91
REMARK   34  A    between atoms: _97  and  _99
REMARK   35  A    between atoms: _99  and  _100
REMARK   36  A    between atoms: _99  and  _102
REMARK   37  A    between atoms: _102  and  _103
REMARK   38  A    between atoms: _103  and  _104
REMARK   39  A    between atoms: _104  and  _105
REMARK   40  A    between atoms: _105  and  _106
REMARK   41  A    between atoms: _110  and  _112
REMARK   42  A    between atoms: _112  and  _113
REMARK   43  A    between atoms: _112  and  _115
REMARK   44  A    between atoms: _115  and  _116
REMARK   45  A    between atoms: _118  and  _120
REMARK   46  A    between atoms: _120  and  _121
REMARK   47  A    between atoms: _120  and  _123
REMARK   48  A    between atoms: _125  and  _127
REMARK   49  A    between atoms: _127  and  _128
REMARK   50  A    between atoms: _127  and  _130
REMARK   51  A    between atoms: _132  and  _134
REMARK   52  A    between atoms: _134  and  _135
REMARK   53  A    between atoms: _134  and  _137
REMARK   54  A    between atoms: _139  and  _141
REMARK   55  A    between atoms: _141  and  _142
REMARK   56  A    between atoms: _141  and  _144
REMARK   57  A    between atoms: _144  and  _145
REMARK   58  A    between atoms: _150  and  _152
REMARK   59  A    between atoms: _152  and  _153
REMARK   60  A    between atoms: _152  and  _155
REMARK   61  A    between atoms: _155  and  _156
REMARK   62  A    between atoms: _161  and  _163
REMARK   63  A    between atoms: _163  and  _164
REMARK   64  A    between atoms: _163  and  _166
REMARK   65  A    between atoms: _169  and  _171
REMARK   66  A    between atoms: _171  and  _172
REMARK   67  A    between atoms: _171  and  _174
REMARK   68  A    between atoms: _174  and  _175
REMARK   69  A    between atoms: _178  and  _180
REMARK   70  A    between atoms: _180  and  _181
REMARK   71  A    between atoms: _180  and  _183
REMARK   72  A    between atoms: _183  and  _184
REMARK   73  A    between atoms: _187  and  _189
REMARK   74  A    between atoms: _189  and  _190
REMARK   75  A    between atoms: _189  and  _192
REMARK   76  A    between atoms: _192  and  _193
REMARK   77  A    between atoms: _196  and  _198
REMARK   78  A    between atoms: _198  and  _199
REMARK   79  A    between atoms: _198  and  _201
REMARK   80  A    between atoms: _201  and  _202
REMARK   81  A    between atoms: _205  and  _207
REMARK   82  A    between atoms: _207  and  _208
REMARK   83  A    between atoms: _210  and  _212
REMARK   84  A    between atoms: _212  and  _213
REMARK   85  A    between atoms: _212  and  _215
REMARK   86  A    between atoms: _219  and  _221
REMARK   87  A    between atoms: _221  and  _222
REMARK   88  A    between atoms: _221  and  _224
REMARK   89  A    between atoms: _224  and  _225
REMARK   90  A    between atoms: _228  and  _230
REMARK   91  A    between atoms: _230  and  _231
REMARK   92  A    between atoms: _230  and  _233
REMARK   93  A    between atoms: _233  and  _234
REMARK   94  A    between atoms: _239  and  _241
REMARK   95  A    between atoms: _241  and  _242
REMARK   96  A    between atoms: _241  and  _244
REMARK   97  A    between atoms: _244  and  _245
REMARK   98  A    between atoms: _250  and  _251
REMARK   99  A    between atoms: _253  and  _255
REMARK  100  A    between atoms: _255  and  _256
REMARK  101  A    between atoms: _255  and  _258
REMARK  102  A    between atoms: _260  and  _262
REMARK  103  A    between atoms: _262  and  _263
REMARK  104  A    between atoms: _265  and  _267
REMARK  105  A    between atoms: _267  and  _268
REMARK  106  A    between atoms: _267  and  _270
REMARK  107  A    between atoms: _270  and  _271
REMARK  108  A    between atoms: _275  and  CO_415
REMARK  109  A    between atoms: _276  and  _278
REMARK  110  A    between atoms: _278  and  _279
REMARK  111  A    between atoms: _281  and  _283
REMARK  112  A    between atoms: _283  and  _284
REMARK  113  A    between atoms: _283  and  _286
REMARK  114  A    between atoms: _286  and  _287
REMARK  115  A    between atoms: _290  and  _292
REMARK  116  A    between atoms: _292  and  _293
REMARK  117  A    between atoms: _292  and  _295
REMARK  118  A    between atoms: _295  and  _296
REMARK  119  A    between atoms: _296  and  _297
REMARK  120  A    between atoms: _299  and  _301
REMARK  121  A    between atoms: _301  and  _302
REMARK  122  A    between atoms: _301  and  _304
REMARK  123  A    between atoms: _304  and  _305
REMARK  124  A    between atoms: _310  and  _312
REMARK  125  A    between atoms: _312  and  _313
REMARK  126  A    between atoms: _312  and  _315
REMARK  127  A    between atoms: _315  and  _316
REMARK  128  A    between atoms: _319  and  _321
REMARK  129  A    between atoms: _321  and  _322
REMARK  130  A    between atoms: _321  and  _324
REMARK  131  A    between atoms: _324  and  _325
REMARK  132  A    between atoms: _328  and  _330
REMARK  133  A    between atoms: _330  and  _331
REMARK  134  A    between atoms: _330  and  _333
REMARK  135  A    between atoms: _333  and  _334
REMARK  136  A    between atoms: _337  and  _339
REMARK  137  A    between atoms: _339  and  _340
REMARK  138  A    between atoms: _339  and  _342
REMARK  139  A    between atoms: _342  and  _343
REMARK  140  A    between atoms: _343  and  _344
REMARK  141  A    between atoms: _344  and  _345
REMARK  142  A    between atoms: _345  and  CO_415
REMARK  143  A    between atoms: _347  and  _349
REMARK  144  A    between atoms: _349  and  _350
REMARK  145  A    between atoms: _349  and  _352
REMARK  146  A    between atoms: _352  and  _353
REMARK  147  A    between atoms: _353  and  _354
REMARK  148  A    between atoms: _356  and  _358
REMARK  149  A    between atoms: _358  and  _359
REMARK  150  A    between atoms: _358  and  _361
REMARK  151  A    between atoms: _361  and  _362
REMARK  152  A    between atoms: _372  and  _374
REMARK  153  A    between atoms: _374  and  _375
REMARK  154  A    between atoms: _374  and  _377
REMARK  155  A    between atoms: _377  and  _378
REMARK  156  A    between atoms: _378  and  _379
REMARK  157  A    between atoms: _384  and  _386
REMARK  158  A    between atoms: _386  and  _387
REMARK  159  A    between atoms: _386  and  _389
REMARK  160  A    between atoms: _389  and  _390
REMARK  161  A    between atoms: _396  and  _398
REMARK  162  A    between atoms: _398  and  _399
REMARK  163  A    between atoms: _398  and  _401
REMARK  164  A    between atoms: _401  and  _402
REMARK  165  A    between atoms: _402  and  _403
REMARK  166  A    between atoms: _406  and  _408
REMARK  167  A    between atoms: _408  and  _409
REMARK  168  A    between atoms: _408  and  _411
REMARK  169  A    between atoms: _411  and  _412
REMARK                            x       y       z     vdW  Elec       q    Type
REMARK                         _______ _______ _______ _____ _____    ______ ____
ROOT
ATOM      1  O   HOH     1      20.096  -4.248   3.547  0.00  0.00    +0.000 OA
ENDROOT
TORSDOF 0
