REMARK  Name = ../refined-set-2016/3zze/3zze_pocket.pdb
REMARK  235 active torsions:
REMARK  status: ('A' for Active; 'I' for Inactive)
REMARK    1  A    between atoms: _1  and  _3
REMARK    2  A    between atoms: _3  and  _4
REMARK    3  A    between atoms: _3  and  _6
REMARK    4  A    between atoms: _9  and  _11
REMARK    5  A    between atoms: _11  and  _12
REMARK    6  A    between atoms: _11  and  _14
REMARK    7  A    between atoms: _14  and  _15
REMARK    8  A    between atoms: _18  and  _20
REMARK    9  A    between atoms: _20  and  _21
REMARK   10  A    between atoms: _23  and  _25
REMARK   11  A    between atoms: _25  and  _26
REMARK   12  A    between atoms: _25  and  _28
REMARK   13  A    between atoms: _28  and  _29
REMARK   14  A    between atoms: _29  and  _30
REMARK   15  A    between atoms: _30  and  _31
REMARK   16  A    between atoms: _40  and  _42
REMARK   17  A    between atoms: _42  and  _43
REMARK   18  A    between atoms: _45  and  _47
REMARK   19  A    between atoms: _47  and  _48
REMARK   20  A    between atoms: _50  and  _52
REMARK   21  A    between atoms: _52  and  _53
REMARK   22  A    between atoms: _52  and  _55
REMARK   23  A    between atoms: _57  and  _59
REMARK   24  A    between atoms: _59  and  _60
REMARK   25  A    between atoms: _59  and  _62
REMARK   26  A    between atoms: _65  and  _67
REMARK   27  A    between atoms: _67  and  _68
REMARK   28  A    between atoms: _67  and  _70
REMARK   29  A    between atoms: _70  and  _71
REMARK   30  A    between atoms: _76  and  _77
REMARK   31  A    between atoms: _79  and  _81
REMARK   32  A    between atoms: _81  and  _82
REMARK   33  A    between atoms: _81  and  _84
REMARK   34  A    between atoms: _84  and  _85
REMARK   35  A    between atoms: _90  and  _92
REMARK   36  A    between atoms: _92  and  _93
REMARK   37  A    between atoms: _95  and  _97
REMARK   38  A    between atoms: _97  and  _98
REMARK   39  A    between atoms: _97  and  _100
REMARK   40  A    between atoms: _100  and  _101
REMARK   41  A    between atoms: _106  and  _108
REMARK   42  A    between atoms: _108  and  _109
REMARK   43  A    between atoms: _108  and  _111
REMARK   44  A    between atoms: _113  and  _115
REMARK   45  A    between atoms: _115  and  _116
REMARK   46  A    between atoms: _119  and  _121
REMARK   47  A    between atoms: _121  and  _122
REMARK   48  A    between atoms: _121  and  _124
REMARK   49  A    between atoms: _127  and  _129
REMARK   50  A    between atoms: _129  and  _130
REMARK   51  A    between atoms: _129  and  _132
REMARK   52  A    between atoms: _132  and  _133
REMARK   53  A    between atoms: _133  and  _134
REMARK   54  A    between atoms: _134  and  _135
REMARK   55  A    between atoms: _135  and  _136
REMARK   56  A    between atoms: _140  and  _142
REMARK   57  A    between atoms: _142  and  _143
REMARK   58  A    between atoms: _142  and  _145
REMARK   59  A    between atoms: _145  and  _146
REMARK   60  A    between atoms: _148  and  _150
REMARK   61  A    between atoms: _150  and  _151
REMARK   62  A    between atoms: _150  and  _153
REMARK   63  A    between atoms: _153  and  _154
REMARK   64  A    between atoms: _154  and  _155
REMARK   65  A    between atoms: _157  and  _159
REMARK   66  A    between atoms: _159  and  _160
REMARK   67  A    between atoms: _159  and  _162
REMARK   68  A    between atoms: _162  and  _163
REMARK   69  A    between atoms: _166  and  _168
REMARK   70  A    between atoms: _168  and  _169
REMARK   71  A    between atoms: _168  and  _171
REMARK   72  A    between atoms: _171  and  _172
REMARK   73  A    between atoms: _174  and  _176
REMARK   74  A    between atoms: _176  and  _177
REMARK   75  A    between atoms: _176  and  _179
REMARK   76  A    between atoms: _182  and  _184
REMARK   77  A    between atoms: _184  and  _185
REMARK   78  A    between atoms: _184  and  _187
REMARK   79  A    between atoms: _190  and  _192
REMARK   80  A    between atoms: _192  and  _193
REMARK   81  A    between atoms: _192  and  _195
REMARK   82  A    between atoms: _195  and  _196
REMARK   83  A    between atoms: _200  and  _201
REMARK   84  A    between atoms: _206  and  _208
REMARK   85  A    between atoms: _208  and  _209
REMARK   86  A    between atoms: _208  and  _211
REMARK   87  A    between atoms: _211  and  _212
REMARK   88  A    between atoms: _217  and  _218
REMARK   89  A    between atoms: _220  and  _222
REMARK   90  A    between atoms: _222  and  _223
REMARK   91  A    between atoms: _222  and  _225
REMARK   92  A    between atoms: _225  and  _226
REMARK   93  A    between atoms: _226  and  _227
REMARK   94  A    between atoms: _229  and  _231
REMARK   95  A    between atoms: _231  and  _232
REMARK   96  A    between atoms: _231  and  _234
REMARK   97  A    between atoms: _234  and  _235
REMARK   98  A    between atoms: _235  and  _236
REMARK   99  A    between atoms: _236  and  _237
REMARK  100  A    between atoms: _237  and  _238
REMARK  101  A    between atoms: _242  and  _244
REMARK  102  A    between atoms: _244  and  _245
REMARK  103  A    between atoms: _244  and  _247
REMARK  104  A    between atoms: _247  and  _248
REMARK  105  A    between atoms: _253  and  _255
REMARK  106  A    between atoms: _255  and  _256
REMARK  107  A    between atoms: _258  and  _260
REMARK  108  A    between atoms: _260  and  _261
REMARK  109  A    between atoms: _260  and  _263
REMARK  110  A    between atoms: _263  and  _264
REMARK  111  A    between atoms: _267  and  _269
REMARK  112  A    between atoms: _269  and  _270
REMARK  113  A    between atoms: _269  and  _272
REMARK  114  A    between atoms: _272  and  _273
REMARK  115  A    between atoms: _276  and  _278
REMARK  116  A    between atoms: _278  and  _279
REMARK  117  A    between atoms: _278  and  _281
REMARK  118  A    between atoms: _281  and  _282
REMARK  119  A    between atoms: _282  and  _283
REMARK  120  A    between atoms: _283  and  _284
REMARK  121  A    between atoms: _293  and  _295
REMARK  122  A    between atoms: _295  and  _296
REMARK  123  A    between atoms: _295  and  _298
REMARK  124  A    between atoms: _298  and  _299
REMARK  125  A    between atoms: _304  and  _306
REMARK  126  A    between atoms: _306  and  _307
REMARK  127  A    between atoms: _306  and  _309
REMARK  128  A    between atoms: _309  and  _310
REMARK  129  A    between atoms: _310  and  _311
REMARK  130  A    between atoms: _311  and  _312
REMARK  131  A    between atoms: _321  and  _323
REMARK  132  A    between atoms: _323  and  _324
REMARK  133  A    between atoms: _323  and  _326
REMARK  134  A    between atoms: _326  and  _327
REMARK  135  A    between atoms: _332  and  _334
REMARK  136  A    between atoms: _334  and  _335
REMARK  137  A    between atoms: _334  and  _337
REMARK  138  A    between atoms: _337  and  _338
REMARK  139  A    between atoms: _341  and  _343
REMARK  140  A    between atoms: _343  and  _344
REMARK  141  A    between atoms: _347  and  _349
REMARK  142  A    between atoms: _349  and  _350
REMARK  143  A    between atoms: _353  and  _355
REMARK  144  A    between atoms: _355  and  _356
REMARK  145  A    between atoms: _355  and  _358
REMARK  146  A    between atoms: _358  and  _359
REMARK  147  A    between atoms: _359  and  _360
REMARK  148  A    between atoms: _360  and  _361
REMARK  149  A    between atoms: _370  and  _372
REMARK  150  A    between atoms: _372  and  _373
REMARK  151  A    between atoms: _372  and  _375
REMARK  152  A    between atoms: _375  and  _376
REMARK  153  A    between atoms: _381  and  _383
REMARK  154  A    between atoms: _383  and  _384
REMARK  155  A    between atoms: _383  and  _386
REMARK  156  A    between atoms: _388  and  _390
REMARK  157  A    between atoms: _390  and  _391
REMARK  158  A    between atoms: _390  and  _393
REMARK  159  A    between atoms: _393  and  _394
REMARK  160  A    between atoms: _394  and  _395
REMARK  161  A    between atoms: _397  and  _399
REMARK  162  A    between atoms: _399  and  _400
REMARK  163  A    between atoms: _399  and  _402
REMARK  164  A    between atoms: _402  and  _403
REMARK  165  A    between atoms: _406  and  _408
REMARK  166  A    between atoms: _408  and  _409
REMARK  167  A    between atoms: _408  and  _411
REMARK  168  A    between atoms: _411  and  _412
REMARK  169  A    between atoms: _415  and  _417
REMARK  170  A    between atoms: _417  and  _418
REMARK  171  A    between atoms: _417  and  _420
REMARK  172  A    between atoms: _420  and  _421
REMARK  173  A    between atoms: _421  and  _422
REMARK  174  A    between atoms: _422  and  _423
REMARK  175  A    between atoms: _423  and  _424
REMARK  176  A    between atoms: _428  and  _430
REMARK  177  A    between atoms: _430  and  _431
REMARK  178  A    between atoms: _430  and  _433
REMARK  179  A    between atoms: _436  and  _438
REMARK  180  A    between atoms: _438  and  _439
REMARK  181  A    between atoms: _442  and  _444
REMARK  182  A    between atoms: _444  and  _445
REMARK  183  A    between atoms: _444  and  _447
REMARK  184  A    between atoms: _447  and  _448
REMARK  185  A    between atoms: _451  and  _453
REMARK  186  A    between atoms: _453  and  _454
REMARK  187  A    between atoms: _453  and  _456
REMARK  188  A    between atoms: _456  and  _457
REMARK  189  A    between atoms: _463  and  _465
REMARK  190  A    between atoms: _465  and  _466
REMARK  191  A    between atoms: _465  and  _468
REMARK  192  A    between atoms: _468  and  _469
REMARK  193  A    between atoms: _472  and  _474
REMARK  194  A    between atoms: _474  and  _475
REMARK  195  A    between atoms: _478  and  _480
REMARK  196  A    between atoms: _480  and  _481
REMARK  197  A    between atoms: _480  and  _483
REMARK  198  A    between atoms: _483  and  _484
REMARK  199  A    between atoms: _484  and  _485
REMARK  200  A    between atoms: _485  and  _486
REMARK  201  A    between atoms: _495  and  _497
REMARK  202  A    between atoms: _497  and  _498
REMARK  203  A    between atoms: _497  and  _500
REMARK  204  A    between atoms: _500  and  _501
REMARK  205  A    between atoms: _504  and  _506
REMARK  206  A    between atoms: _506  and  _507
REMARK  207  A    between atoms: _506  and  _509
REMARK  208  A    between atoms: _509  and  _510
REMARK  209  A    between atoms: _510  and  _511
REMARK  210  A    between atoms: _513  and  _515
REMARK  211  A    between atoms: _515  and  _516
REMARK  212  A    between atoms: _515  and  _518
REMARK  213  A    between atoms: _518  and  _519
REMARK  214  A    between atoms: _524  and  _525
REMARK  215  A    between atoms: _527  and  _529
REMARK  216  A    between atoms: _529  and  _530
REMARK  217  A    between atoms: _529  and  _532
REMARK  218  A    between atoms: _532  and  _533
REMARK  219  A    between atoms: _536  and  _538
REMARK  220  A    between atoms: _538  and  _539
REMARK  221  A    between atoms: _538  and  _541
REMARK  222  A    between atoms: _541  and  _542
REMARK  223  A    between atoms: _542  and  _543
REMARK  224  A    between atoms: _543  and  _544
REMARK  225  A    between atoms: _544  and  _545
REMARK  226  A    between atoms: _549  and  _551
REMARK  227  A    between atoms: _551  and  _552
REMARK  228  A    between atoms: _551  and  _554
REMARK  229  A    between atoms: _554  and  _555
REMARK  230  A    between atoms: _560  and  _561
REMARK  231  A    between atoms: _563  and  _565
REMARK  232  A    between atoms: _565  and  _566
REMARK  233  A    between atoms: _565  and  _568
REMARK  234  A    between atoms: _568  and  _569
REMARK  235  A    between atoms: _574  and  _575
REMARK                            x       y       z     vdW  Elec       q    Type
REMARK                         _______ _______ _______ _____ _____    ______ ____
ROOT
ATOM      1  C   GLY A   3      21.044   6.646  -0.672  0.00  0.00    +0.243 C 
ATOM      2  O   GLY A   3      21.018   5.465  -0.332  0.00  0.00    -0.273 OA
ATOM      3  N   ARG A   4      22.162   7.274  -1.015  0.00  0.00    -0.297 N 
ATOM      4  H   ARG A   4      22.128   8.285  -1.257  0.00  0.00    +0.150 HD
ENDROOT
BRANCH   3   5
ATOM      5  CA  ARG A   4      23.435   6.569  -1.058  0.00  0.00    +0.149 C 
BRANCH   5   6
ATOM      6  C   ARG A   4      24.459   7.205  -0.128  0.00  0.00    +0.241 C 
ATOM      7  N   GLY A   5      25.042   6.377   0.732  0.00  0.00    -0.296 N 
ATOM      8  H   GLY A   5      24.718   5.390   0.792  0.00  0.00    +0.150 HD
ATOM      9  O   ARG A   4      24.710   8.413  -0.186  0.00  0.00    -0.273 OA
BRANCH   7  10
ATOM     10  CA  GLY A   5      26.122   6.827   1.588  0.00  0.00    +0.163 C 
BRANCH  10  11
ATOM     11  C   GLY A   5      27.419   6.124   1.243  0.00  0.00    +0.229 C 
ATOM     12  O   GLY A   5      27.459   5.282   0.347  0.00  0.00    -0.286 OA
ENDBRANCH  10  11
ENDBRANCH   7  10
ENDBRANCH   5   6
BRANCH   5  13
ATOM     13  CB  ARG A   4      23.969   6.554  -2.491  0.00  0.00    +0.033 C 
BRANCH  13  14
ATOM     14  CG  ARG A   4      22.947   6.052  -3.499  0.00  0.00    +0.045 C 
BRANCH  14  15
ATOM     15  CD  ARG A   4      23.440   6.175  -4.932  0.00  0.00    +0.174 C 
BRANCH  15  16
ATOM     16  NE  ARG A   4      22.435   5.688  -5.874  0.00  0.00    -0.265 N 
ATOM     17  CZ  ARG A   4      22.280   4.408  -6.202  0.00  0.00    +0.342 C 
ATOM     18  NH2 ARG A   4      23.067   3.486  -5.666  0.00  0.00    -0.292 N 
ATOM     19 HH21 ARG A   4      23.806   3.763  -4.989  0.00  0.00    +0.255 HD
ATOM     20 HH22 ARG A   4      22.945   2.486  -5.923  0.00  0.00    +0.255 HD
ATOM     21  NH1 ARG A   4      21.332   4.050  -7.061  0.00  0.00    -0.292 N 
ATOM     22 HH11 ARG A   4      21.213   3.049  -7.316  0.00  0.00    +0.255 HD
ATOM     23 HH12 ARG A   4      20.709   4.771  -7.478  0.00  0.00    +0.255 HD
ATOM     24  HE  ARG A   4      21.802   6.385  -6.315  0.00  0.00    +0.259 HD
ENDBRANCH  15  16
ENDBRANCH  14  15
ENDBRANCH  13  14
ENDBRANCH   5  13
ENDBRANCH   3   5
BRANCH   1  25
ATOM     25  CA  GLY A   3      19.775   7.466  -0.711  0.00  0.00    +0.176 C 
BRANCH  25  27
ATOM     26  C   ILE A   2      17.403   7.094  -0.900  0.00  0.00    +0.241 C 
ATOM     27  N   GLY A   3      18.597   6.636  -0.544  0.00  0.00    -0.295 N 
ATOM     28  H   GLY A   3      18.688   5.680  -0.145  0.00  0.00    +0.150 HD
ATOM     29  O   ILE A   2      17.232   8.225  -1.355  0.00  0.00    -0.273 OA
BRANCH  26  30
ATOM     30  CA  ILE A   2      16.231   6.139  -0.713  0.00  0.00    +0.148 C 
BRANCH  30  32
ATOM     31  C   VAL A   1      16.521   4.449  -2.441  0.00  0.00    +0.238 C 
ATOM     32  N   ILE A   2      16.580   4.794  -1.158  0.00  0.00    -0.297 N 
ATOM     33  H   ILE A   2      16.882   4.089  -0.456  0.00  0.00    +0.150 HD
ATOM     34  O   VAL A   1      16.076   5.190  -3.316  0.00  0.00    -0.274 OA
BRANCH  31  35
ATOM     35  CA  VAL A   1      17.032   3.056  -2.792  0.00  0.00    +0.145 C 
BRANCH  35  36
ATOM     36  CB  VAL A   1      18.286   3.196  -3.680  0.00  0.00    +0.025 C 
ATOM     37  CG2 VAL A   1      19.341   4.030  -2.965  0.00  0.00    +0.002 C 
ATOM     38  CG1 VAL A   1      18.840   1.818  -4.018  0.00  0.00    +0.002 C 
ENDBRANCH  35  36
BRANCH  35  39
ATOM     39  N   VAL A   1      15.999   2.287  -3.466  0.00  0.00    -0.238 NA
ATOM     40  H   VAL A   1      16.012   2.224  -4.504  0.00  0.00    +0.142 HD
ENDBRANCH  35  39
ENDBRANCH  31  35
ENDBRANCH  30  32
BRANCH  30  41
ATOM     41  CB  ILE A   2      15.822   6.150   0.770  0.00  0.00    +0.027 C 
ATOM     42  CG2 ILE A   2      15.715   7.580   1.265  0.00  0.00    +0.002 C 
BRANCH  41  43
ATOM     43  CG1 ILE A   2      14.497   5.402   0.948  0.00  0.00    +0.002 C 
ATOM     44  CD1 ILE A   2      14.084   5.217   2.390  0.00  0.00    +0.000 C 
ENDBRANCH  41  43
ENDBRANCH  30  41
ENDBRANCH  26  30
ENDBRANCH  25  27
ENDBRANCH   1  25
TORSDOF 17
REMARK  Name = ../refined-set-2016/3zze/3zze_pocket.pdb
REMARK  235 active torsions:
REMARK  status: ('A' for Active; 'I' for Inactive)
REMARK    1  A    between atoms: _1  and  _3
REMARK    2  A    between atoms: _3  and  _4
REMARK    3  A    between atoms: _3  and  _6
REMARK    4  A    between atoms: _9  and  _11
REMARK    5  A    between atoms: _11  and  _12
REMARK    6  A    between atoms: _11  and  _14
REMARK    7  A    between atoms: _14  and  _15
REMARK    8  A    between atoms: _18  and  _20
REMARK    9  A    between atoms: _20  and  _21
REMARK   10  A    between atoms: _23  and  _25
REMARK   11  A    between atoms: _25  and  _26
REMARK   12  A    between atoms: _25  and  _28
REMARK   13  A    between atoms: _28  and  _29
REMARK   14  A    between atoms: _29  and  _30
REMARK   15  A    between atoms: _30  and  _31
REMARK   16  A    between atoms: _40  and  _42
REMARK   17  A    between atoms: _42  and  _43
REMARK   18  A    between atoms: _45  and  _47
REMARK   19  A    between atoms: _47  and  _48
REMARK   20  A    between atoms: _50  and  _52
REMARK   21  A    between atoms: _52  and  _53
REMARK   22  A    between atoms: _52  and  _55
REMARK   23  A    between atoms: _57  and  _59
REMARK   24  A    between atoms: _59  and  _60
REMARK   25  A    between atoms: _59  and  _62
REMARK   26  A    between atoms: _65  and  _67
REMARK   27  A    between atoms: _67  and  _68
REMARK   28  A    between atoms: _67  and  _70
REMARK   29  A    between atoms: _70  and  _71
REMARK   30  A    between atoms: _76  and  _77
REMARK   31  A    between atoms: _79  and  _81
REMARK   32  A    between atoms: _81  and  _82
REMARK   33  A    between atoms: _81  and  _84
REMARK   34  A    between atoms: _84  and  _85
REMARK   35  A    between atoms: _90  and  _92
REMARK   36  A    between atoms: _92  and  _93
REMARK   37  A    between atoms: _95  and  _97
REMARK   38  A    between atoms: _97  and  _98
REMARK   39  A    between atoms: _97  and  _100
REMARK   40  A    between atoms: _100  and  _101
REMARK   41  A    between atoms: _106  and  _108
REMARK   42  A    between atoms: _108  and  _109
REMARK   43  A    between atoms: _108  and  _111
REMARK   44  A    between atoms: _113  and  _115
REMARK   45  A    between atoms: _115  and  _116
REMARK   46  A    between atoms: _119  and  _121
REMARK   47  A    between atoms: _121  and  _122
REMARK   48  A    between atoms: _121  and  _124
REMARK   49  A    between atoms: _127  and  _129
REMARK   50  A    between atoms: _129  and  _130
REMARK   51  A    between atoms: _129  and  _132
REMARK   52  A    between atoms: _132  and  _133
REMARK   53  A    between atoms: _133  and  _134
REMARK   54  A    between atoms: _134  and  _135
REMARK   55  A    between atoms: _135  and  _136
REMARK   56  A    between atoms: _140  and  _142
REMARK   57  A    between atoms: _142  and  _143
REMARK   58  A    between atoms: _142  and  _145
REMARK   59  A    between atoms: _145  and  _146
REMARK   60  A    between atoms: _148  and  _150
REMARK   61  A    between atoms: _150  and  _151
REMARK   62  A    between atoms: _150  and  _153
REMARK   63  A    between atoms: _153  and  _154
REMARK   64  A    between atoms: _154  and  _155
REMARK   65  A    between atoms: _157  and  _159
REMARK   66  A    between atoms: _159  and  _160
REMARK   67  A    between atoms: _159  and  _162
REMARK   68  A    between atoms: _162  and  _163
REMARK   69  A    between atoms: _166  and  _168
REMARK   70  A    between atoms: _168  and  _169
REMARK   71  A    between atoms: _168  and  _171
REMARK   72  A    between atoms: _171  and  _172
REMARK   73  A    between atoms: _174  and  _176
REMARK   74  A    between atoms: _176  and  _177
REMARK   75  A    between atoms: _176  and  _179
REMARK   76  A    between atoms: _182  and  _184
REMARK   77  A    between atoms: _184  and  _185
REMARK   78  A    between atoms: _184  and  _187
REMARK   79  A    between atoms: _190  and  _192
REMARK   80  A    between atoms: _192  and  _193
REMARK   81  A    between atoms: _192  and  _195
REMARK   82  A    between atoms: _195  and  _196
REMARK   83  A    between atoms: _200  and  _201
REMARK   84  A    between atoms: _206  and  _208
REMARK   85  A    between atoms: _208  and  _209
REMARK   86  A    between atoms: _208  and  _211
REMARK   87  A    between atoms: _211  and  _212
REMARK   88  A    between atoms: _217  and  _218
REMARK   89  A    between atoms: _220  and  _222
REMARK   90  A    between atoms: _222  and  _223
REMARK   91  A    between atoms: _222  and  _225
REMARK   92  A    between atoms: _225  and  _226
REMARK   93  A    between atoms: _226  and  _227
REMARK   94  A    between atoms: _229  and  _231
REMARK   95  A    between atoms: _231  and  _232
REMARK   96  A    between atoms: _231  and  _234
REMARK   97  A    between atoms: _234  and  _235
REMARK   98  A    between atoms: _235  and  _236
REMARK   99  A    between atoms: _236  and  _237
REMARK  100  A    between atoms: _237  and  _238
REMARK  101  A    between atoms: _242  and  _244
REMARK  102  A    between atoms: _244  and  _245
REMARK  103  A    between atoms: _244  and  _247
REMARK  104  A    between atoms: _247  and  _248
REMARK  105  A    between atoms: _253  and  _255
REMARK  106  A    between atoms: _255  and  _256
REMARK  107  A    between atoms: _258  and  _260
REMARK  108  A    between atoms: _260  and  _261
REMARK  109  A    between atoms: _260  and  _263
REMARK  110  A    between atoms: _263  and  _264
REMARK  111  A    between atoms: _267  and  _269
REMARK  112  A    between atoms: _269  and  _270
REMARK  113  A    between atoms: _269  and  _272
REMARK  114  A    between atoms: _272  and  _273
REMARK  115  A    between atoms: _276  and  _278
REMARK  116  A    between atoms: _278  and  _279
REMARK  117  A    between atoms: _278  and  _281
REMARK  118  A    between atoms: _281  and  _282
REMARK  119  A    between atoms: _282  and  _283
REMARK  120  A    between atoms: _283  and  _284
REMARK  121  A    between atoms: _293  and  _295
REMARK  122  A    between atoms: _295  and  _296
REMARK  123  A    between atoms: _295  and  _298
REMARK  124  A    between atoms: _298  and  _299
REMARK  125  A    between atoms: _304  and  _306
REMARK  126  A    between atoms: _306  and  _307
REMARK  127  A    between atoms: _306  and  _309
REMARK  128  A    between atoms: _309  and  _310
REMARK  129  A    between atoms: _310  and  _311
REMARK  130  A    between atoms: _311  and  _312
REMARK  131  A    between atoms: _321  and  _323
REMARK  132  A    between atoms: _323  and  _324
REMARK  133  A    between atoms: _323  and  _326
REMARK  134  A    between atoms: _326  and  _327
REMARK  135  A    between atoms: _332  and  _334
REMARK  136  A    between atoms: _334  and  _335
REMARK  137  A    between atoms: _334  and  _337
REMARK  138  A    between atoms: _337  and  _338
REMARK  139  A    between atoms: _341  and  _343
REMARK  140  A    between atoms: _343  and  _344
REMARK  141  A    between atoms: _347  and  _349
REMARK  142  A    between atoms: _349  and  _350
REMARK  143  A    between atoms: _353  and  _355
REMARK  144  A    between atoms: _355  and  _356
REMARK  145  A    between atoms: _355  and  _358
REMARK  146  A    between atoms: _358  and  _359
REMARK  147  A    between atoms: _359  and  _360
REMARK  148  A    between atoms: _360  and  _361
REMARK  149  A    between atoms: _370  and  _372
REMARK  150  A    between atoms: _372  and  _373
REMARK  151  A    between atoms: _372  and  _375
REMARK  152  A    between atoms: _375  and  _376
REMARK  153  A    between atoms: _381  and  _383
REMARK  154  A    between atoms: _383  and  _384
REMARK  155  A    between atoms: _383  and  _386
REMARK  156  A    between atoms: _388  and  _390
REMARK  157  A    between atoms: _390  and  _391
REMARK  158  A    between atoms: _390  and  _393
REMARK  159  A    between atoms: _393  and  _394
REMARK  160  A    between atoms: _394  and  _395
REMARK  161  A    between atoms: _397  and  _399
REMARK  162  A    between atoms: _399  and  _400
REMARK  163  A    between atoms: _399  and  _402
REMARK  164  A    between atoms: _402  and  _403
REMARK  165  A    between atoms: _406  and  _408
REMARK  166  A    between atoms: _408  and  _409
REMARK  167  A    between atoms: _408  and  _411
REMARK  168  A    between atoms: _411  and  _412
REMARK  169  A    between atoms: _415  and  _417
REMARK  170  A    between atoms: _417  and  _418
REMARK  171  A    between atoms: _417  and  _420
REMARK  172  A    between atoms: _420  and  _421
REMARK  173  A    between atoms: _421  and  _422
REMARK  174  A    between atoms: _422  and  _423
REMARK  175  A    between atoms: _423  and  _424
REMARK  176  A    between atoms: _428  and  _430
REMARK  177  A    between atoms: _430  and  _431
REMARK  178  A    between atoms: _430  and  _433
REMARK  179  A    between atoms: _436  and  _438
REMARK  180  A    between atoms: _438  and  _439
REMARK  181  A    between atoms: _442  and  _444
REMARK  182  A    between atoms: _444  and  _445
REMARK  183  A    between atoms: _444  and  _447
REMARK  184  A    between atoms: _447  and  _448
REMARK  185  A    between atoms: _451  and  _453
REMARK  186  A    between atoms: _453  and  _454
REMARK  187  A    between atoms: _453  and  _456
REMARK  188  A    between atoms: _456  and  _457
REMARK  189  A    between atoms: _463  and  _465
REMARK  190  A    between atoms: _465  and  _466
REMARK  191  A    between atoms: _465  and  _468
REMARK  192  A    between atoms: _468  and  _469
REMARK  193  A    between atoms: _472  and  _474
REMARK  194  A    between atoms: _474  and  _475
REMARK  195  A    between atoms: _478  and  _480
REMARK  196  A    between atoms: _480  and  _481
REMARK  197  A    between atoms: _480  and  _483
REMARK  198  A    between atoms: _483  and  _484
REMARK  199  A    between atoms: _484  and  _485
REMARK  200  A    between atoms: _485  and  _486
REMARK  201  A    between atoms: _495  and  _497
REMARK  202  A    between atoms: _497  and  _498
REMARK  203  A    between atoms: _497  and  _500
REMARK  204  A    between atoms: _500  and  _501
REMARK  205  A    between atoms: _504  and  _506
REMARK  206  A    between atoms: _506  and  _507
REMARK  207  A    between atoms: _506  and  _509
REMARK  208  A    between atoms: _509  and  _510
REMARK  209  A    between atoms: _510  and  _511
REMARK  210  A    between atoms: _513  and  _515
REMARK  211  A    between atoms: _515  and  _516
REMARK  212  A    between atoms: _515  and  _518
REMARK  213  A    between atoms: _518  and  _519
REMARK  214  A    between atoms: _524  and  _525
REMARK  215  A    between atoms: _527  and  _529
REMARK  216  A    between atoms: _529  and  _530
REMARK  217  A    between atoms: _529  and  _532
REMARK  218  A    between atoms: _532  and  _533
REMARK  219  A    between atoms: _536  and  _538
REMARK  220  A    between atoms: _538  and  _539
REMARK  221  A    between atoms: _538  and  _541
REMARK  222  A    between atoms: _541  and  _542
REMARK  223  A    between atoms: _542  and  _543
REMARK  224  A    between atoms: _543  and  _544
REMARK  225  A    between atoms: _544  and  _545
REMARK  226  A    between atoms: _549  and  _551
REMARK  227  A    between atoms: _551  and  _552
REMARK  228  A    between atoms: _551  and  _554
REMARK  229  A    between atoms: _554  and  _555
REMARK  230  A    between atoms: _560  and  _561
REMARK  231  A    between atoms: _563  and  _565
REMARK  232  A    between atoms: _565  and  _566
REMARK  233  A    between atoms: _565  and  _568
REMARK  234  A    between atoms: _568  and  _569
REMARK  235  A    between atoms: _574  and  _575
REMARK                            x       y       z     vdW  Elec       q    Type
REMARK                         _______ _______ _______ _____ _____    ______ ____
ROOT
ATOM      1  CA  TYR A   4      16.518   1.378   1.401  0.00  0.00    +0.153 C 
ENDROOT
BRANCH   1   3
ATOM      2  C   VAL A   3      18.340   2.992   1.669  0.00  0.00    +0.241 C 
ATOM      3  N   TYR A   4      17.583   2.017   2.170  0.00  0.00    -0.297 N 
ATOM      4  H   TYR A   4      17.757   1.699   3.145  0.00  0.00    +0.150 HD
ATOM      5  O   VAL A   3      18.198   3.449   0.534  0.00  0.00    -0.273 OA
BRANCH   2   6
ATOM      6  CA  VAL A   3      19.432   3.530   2.581  0.00  0.00    +0.149 C 
BRANCH   6   9
ATOM      7  C   CYS A   2      21.641   2.727   1.950  0.00  0.00    +0.242 C 
ATOM      8  O   CYS A   2      21.671   1.898   2.857  0.00  0.00    -0.273 OA
ATOM      9  N   VAL A   3      20.661   3.610   1.806  0.00  0.00    -0.297 N 
ATOM     10  H   VAL A   3      20.775   4.382   1.119  0.00  0.00    +0.150 HD
BRANCH   7  11
ATOM     11  CA  CYS A   2      22.758   2.806   0.920  0.00  0.00    +0.160 C 
BRANCH  11  14
ATOM     12  C   GLY A   1      24.960   2.676   1.939  0.00  0.00    +0.240 C 
ATOM     13  O   GLY A   1      24.990   3.891   2.135  0.00  0.00    -0.274 OA
ATOM     14  N   CYS A   2      23.938   2.066   1.347  0.00  0.00    -0.296 N 
ATOM     15  H   CYS A   2      23.982   1.040   1.185  0.00  0.00    +0.150 HD
BRANCH  12  16
ATOM     16  CA  GLY A   1      26.123   1.803   2.362  0.00  0.00    +0.169 C 
BRANCH  16  17
ATOM     17  N   GLY A   1      27.193   2.615   2.912  0.00  0.00    -0.236 NA
ATOM     18  H   GLY A   1      27.200   3.641   2.739  0.00  0.00    +0.142 HD
ENDBRANCH  16  17
ENDBRANCH  12  16
ENDBRANCH  11  14
BRANCH  11  19
ATOM     19  CB  CYS A   2      22.249   2.272  -0.421  0.00  0.00    +0.098 C 
ATOM     20  SG  CYS A   2      23.344   2.600  -1.823  0.00  0.00    -0.080 S 
ENDBRANCH  11  19
ENDBRANCH   7  11
ENDBRANCH   6   9
BRANCH   6  21
ATOM     21  CB  VAL A   3      19.010   4.921   3.108  0.00  0.00    +0.027 C 
ATOM     22  CG2 VAL A   3      20.117   5.508   3.983  0.00  0.00    +0.002 C 
ATOM     23  CG1 VAL A   3      17.720   4.807   3.894  0.00  0.00    +0.002 C 
ENDBRANCH   6  21
ENDBRANCH   2   6
ENDBRANCH   1   3
BRANCH   1  24
ATOM     24  C   TYR A   4      15.185   1.495   2.124  0.00  0.00    +0.241 C 
ATOM     25  O   TYR A   4      15.139   1.577   3.351  0.00  0.00    -0.273 OA
ATOM     26  N   HIS A   5      14.102   1.477   1.358  0.00  0.00    -0.297 N 
ATOM     27  H   HIS A   5      14.202   1.581   0.328  0.00  0.00    +0.150 HD
BRANCH  26  28
ATOM     28  CA  HIS A   5      12.778   1.314   1.934  0.00  0.00    +0.155 C 
BRANCH  28  29
ATOM     29  C   HIS A   5      12.662  -0.054   2.596  0.00  0.00    +0.241 C 
ATOM     30  N   GLY A   6      12.068  -0.082   3.784  0.00  0.00    -0.296 N 
ATOM     31  H   GLY A   6      11.770   0.807   4.234  0.00  0.00    +0.150 HD
ATOM     32  O   HIS A   5      13.108  -1.064   2.044  0.00  0.00    -0.273 OA
BRANCH  30  33
ATOM     33  CA  GLY A   6      11.832  -1.343   4.457  0.00  0.00    +0.163 C 
BRANCH  33  34
ATOM     34  C   GLY A   6      10.492  -1.360   5.166  0.00  0.00    +0.229 C 
ATOM     35  O   GLY A   6       9.827  -0.327   5.299  0.00  0.00    -0.286 OA
ENDBRANCH  33  34
ENDBRANCH  30  33
ENDBRANCH  28  29
BRANCH  28  36
ATOM     36  CB  HIS A   5      11.711   1.453   0.847  0.00  0.00    +0.076 C 
BRANCH  36  37
ATOM     37  CG  HIS A   5      11.540   2.854   0.347  0.00  0.00    +0.082 A 
ATOM     38  ND1 HIS A   5      10.756   3.784   0.997  0.00  0.00    -0.227 NA
ATOM     39  CE1 HIS A   5      10.787   4.925   0.330  0.00  0.00    +0.199 A 
ATOM     40  NE2 HIS A   5      11.564   4.768  -0.727  0.00  0.00    -0.221 NA
ATOM     41  CD2 HIS A   5      12.047   3.482  -0.740  0.00  0.00    +0.115 A 
ENDBRANCH  36  37
ENDBRANCH  28  36
ENDBRANCH  26  28
ENDBRANCH   1  24
BRANCH   1  42
ATOM     42  CB  TYR A   4      16.818  -0.109   1.199  0.00  0.00    +0.055 C 
BRANCH  42  43
ATOM     43  CG  TYR A   4      18.151  -0.391   0.556  0.00  0.00    -0.020 A 
ATOM     44  CD2 TYR A   4      19.285  -0.593   1.329  0.00  0.00    -0.001 A 
ATOM     45  CE2 TYR A   4      20.509  -0.865   0.742  0.00  0.00    +0.036 A 
ATOM     46  CZ  TYR A   4      20.604  -0.939  -0.632  0.00  0.00    +0.134 A 
ATOM     47  CE1 TYR A   4      19.491  -0.742  -1.419  0.00  0.00    +0.036 A 
ATOM     48  CD1 TYR A   4      18.274  -0.469  -0.824  0.00  0.00    -0.001 A 
BRANCH  46  49
ATOM     49  OH  TYR A   4      21.821  -1.202  -1.218  0.00  0.00    -0.506 OA
ATOM     50  HH  TYR A   4      21.715  -1.221  -2.202  0.00  0.00    +0.292 HD
ENDBRANCH  46  49
ENDBRANCH  42  43
ENDBRANCH   1  42
TORSDOF 19
REMARK  Name = ../refined-set-2016/3zze/3zze_pocket.pdb
REMARK  235 active torsions:
REMARK  status: ('A' for Active; 'I' for Inactive)
REMARK    1  A    between atoms: _1  and  _3
REMARK    2  A    between atoms: _3  and  _4
REMARK    3  A    between atoms: _3  and  _6
REMARK    4  A    between atoms: _9  and  _11
REMARK    5  A    between atoms: _11  and  _12
REMARK    6  A    between atoms: _11  and  _14
REMARK    7  A    between atoms: _14  and  _15
REMARK    8  A    between atoms: _18  and  _20
REMARK    9  A    between atoms: _20  and  _21
REMARK   10  A    between atoms: _23  and  _25
REMARK   11  A    between atoms: _25  and  _26
REMARK   12  A    between atoms: _25  and  _28
REMARK   13  A    between atoms: _28  and  _29
REMARK   14  A    between atoms: _29  and  _30
REMARK   15  A    between atoms: _30  and  _31
REMARK   16  A    between atoms: _40  and  _42
REMARK   17  A    between atoms: _42  and  _43
REMARK   18  A    between atoms: _45  and  _47
REMARK   19  A    between atoms: _47  and  _48
REMARK   20  A    between atoms: _50  and  _52
REMARK   21  A    between atoms: _52  and  _53
REMARK   22  A    between atoms: _52  and  _55
REMARK   23  A    between atoms: _57  and  _59
REMARK   24  A    between atoms: _59  and  _60
REMARK   25  A    between atoms: _59  and  _62
REMARK   26  A    between atoms: _65  and  _67
REMARK   27  A    between atoms: _67  and  _68
REMARK   28  A    between atoms: _67  and  _70
REMARK   29  A    between atoms: _70  and  _71
REMARK   30  A    between atoms: _76  and  _77
REMARK   31  A    between atoms: _79  and  _81
REMARK   32  A    between atoms: _81  and  _82
REMARK   33  A    between atoms: _81  and  _84
REMARK   34  A    between atoms: _84  and  _85
REMARK   35  A    between atoms: _90  and  _92
REMARK   36  A    between atoms: _92  and  _93
REMARK   37  A    between atoms: _95  and  _97
REMARK   38  A    between atoms: _97  and  _98
REMARK   39  A    between atoms: _97  and  _100
REMARK   40  A    between atoms: _100  and  _101
REMARK   41  A    between atoms: _106  and  _108
REMARK   42  A    between atoms: _108  and  _109
REMARK   43  A    between atoms: _108  and  _111
REMARK   44  A    between atoms: _113  and  _115
REMARK   45  A    between atoms: _115  and  _116
REMARK   46  A    between atoms: _119  and  _121
REMARK   47  A    between atoms: _121  and  _122
REMARK   48  A    between atoms: _121  and  _124
REMARK   49  A    between atoms: _127  and  _129
REMARK   50  A    between atoms: _129  and  _130
REMARK   51  A    between atoms: _129  and  _132
REMARK   52  A    between atoms: _132  and  _133
REMARK   53  A    between atoms: _133  and  _134
REMARK   54  A    between atoms: _134  and  _135
REMARK   55  A    between atoms: _135  and  _136
REMARK   56  A    between atoms: _140  and  _142
REMARK   57  A    between atoms: _142  and  _143
REMARK   58  A    between atoms: _142  and  _145
REMARK   59  A    between atoms: _145  and  _146
REMARK   60  A    between atoms: _148  and  _150
REMARK   61  A    between atoms: _150  and  _151
REMARK   62  A    between atoms: _150  and  _153
REMARK   63  A    between atoms: _153  and  _154
REMARK   64  A    between atoms: _154  and  _155
REMARK   65  A    between atoms: _157  and  _159
REMARK   66  A    between atoms: _159  and  _160
REMARK   67  A    between atoms: _159  and  _162
REMARK   68  A    between atoms: _162  and  _163
REMARK   69  A    between atoms: _166  and  _168
REMARK   70  A    between atoms: _168  and  _169
REMARK   71  A    between atoms: _168  and  _171
REMARK   72  A    between atoms: _171  and  _172
REMARK   73  A    between atoms: _174  and  _176
REMARK   74  A    between atoms: _176  and  _177
REMARK   75  A    between atoms: _176  and  _179
REMARK   76  A    between atoms: _182  and  _184
REMARK   77  A    between atoms: _184  and  _185
REMARK   78  A    between atoms: _184  and  _187
REMARK   79  A    between atoms: _190  and  _192
REMARK   80  A    between atoms: _192  and  _193
REMARK   81  A    between atoms: _192  and  _195
REMARK   82  A    between atoms: _195  and  _196
REMARK   83  A    between atoms: _200  and  _201
REMARK   84  A    between atoms: _206  and  _208
REMARK   85  A    between atoms: _208  and  _209
REMARK   86  A    between atoms: _208  and  _211
REMARK   87  A    between atoms: _211  and  _212
REMARK   88  A    between atoms: _217  and  _218
REMARK   89  A    between atoms: _220  and  _222
REMARK   90  A    between atoms: _222  and  _223
REMARK   91  A    between atoms: _222  and  _225
REMARK   92  A    between atoms: _225  and  _226
REMARK   93  A    between atoms: _226  and  _227
REMARK   94  A    between atoms: _229  and  _231
REMARK   95  A    between atoms: _231  and  _232
REMARK   96  A    between atoms: _231  and  _234
REMARK   97  A    between atoms: _234  and  _235
REMARK   98  A    between atoms: _235  and  _236
REMARK   99  A    between atoms: _236  and  _237
REMARK  100  A    between atoms: _237  and  _238
REMARK  101  A    between atoms: _242  and  _244
REMARK  102  A    between atoms: _244  and  _245
REMARK  103  A    between atoms: _244  and  _247
REMARK  104  A    between atoms: _247  and  _248
REMARK  105  A    between atoms: _253  and  _255
REMARK  106  A    between atoms: _255  and  _256
REMARK  107  A    between atoms: _258  and  _260
REMARK  108  A    between atoms: _260  and  _261
REMARK  109  A    between atoms: _260  and  _263
REMARK  110  A    between atoms: _263  and  _264
REMARK  111  A    between atoms: _267  and  _269
REMARK  112  A    between atoms: _269  and  _270
REMARK  113  A    between atoms: _269  and  _272
REMARK  114  A    between atoms: _272  and  _273
REMARK  115  A    between atoms: _276  and  _278
REMARK  116  A    between atoms: _278  and  _279
REMARK  117  A    between atoms: _278  and  _281
REMARK  118  A    between atoms: _281  and  _282
REMARK  119  A    between atoms: _282  and  _283
REMARK  120  A    between atoms: _283  and  _284
REMARK  121  A    between atoms: _293  and  _295
REMARK  122  A    between atoms: _295  and  _296
REMARK  123  A    between atoms: _295  and  _298
REMARK  124  A    between atoms: _298  and  _299
REMARK  125  A    between atoms: _304  and  _306
REMARK  126  A    between atoms: _306  and  _307
REMARK  127  A    between atoms: _306  and  _309
REMARK  128  A    between atoms: _309  and  _310
REMARK  129  A    between atoms: _310  and  _311
REMARK  130  A    between atoms: _311  and  _312
REMARK  131  A    between atoms: _321  and  _323
REMARK  132  A    between atoms: _323  and  _324
REMARK  133  A    between atoms: _323  and  _326
REMARK  134  A    between atoms: _326  and  _327
REMARK  135  A    between atoms: _332  and  _334
REMARK  136  A    between atoms: _334  and  _335
REMARK  137  A    between atoms: _334  and  _337
REMARK  138  A    between atoms: _337  and  _338
REMARK  139  A    between atoms: _341  and  _343
REMARK  140  A    between atoms: _343  and  _344
REMARK  141  A    between atoms: _347  and  _349
REMARK  142  A    between atoms: _349  and  _350
REMARK  143  A    between atoms: _353  and  _355
REMARK  144  A    between atoms: _355  and  _356
REMARK  145  A    between atoms: _355  and  _358
REMARK  146  A    between atoms: _358  and  _359
REMARK  147  A    between atoms: _359  and  _360
REMARK  148  A    between atoms: _360  and  _361
REMARK  149  A    between atoms: _370  and  _372
REMARK  150  A    between atoms: _372  and  _373
REMARK  151  A    between atoms: _372  and  _375
REMARK  152  A    between atoms: _375  and  _376
REMARK  153  A    between atoms: _381  and  _383
REMARK  154  A    between atoms: _383  and  _384
REMARK  155  A    between atoms: _383  and  _386
REMARK  156  A    between atoms: _388  and  _390
REMARK  157  A    between atoms: _390  and  _391
REMARK  158  A    between atoms: _390  and  _393
REMARK  159  A    between atoms: _393  and  _394
REMARK  160  A    between atoms: _394  and  _395
REMARK  161  A    between atoms: _397  and  _399
REMARK  162  A    between atoms: _399  and  _400
REMARK  163  A    between atoms: _399  and  _402
REMARK  164  A    between atoms: _402  and  _403
REMARK  165  A    between atoms: _406  and  _408
REMARK  166  A    between atoms: _408  and  _409
REMARK  167  A    between atoms: _408  and  _411
REMARK  168  A    between atoms: _411  and  _412
REMARK  169  A    between atoms: _415  and  _417
REMARK  170  A    between atoms: _417  and  _418
REMARK  171  A    between atoms: _417  and  _420
REMARK  172  A    between atoms: _420  and  _421
REMARK  173  A    between atoms: _421  and  _422
REMARK  174  A    between atoms: _422  and  _423
REMARK  175  A    between atoms: _423  and  _424
REMARK  176  A    between atoms: _428  and  _430
REMARK  177  A    between atoms: _430  and  _431
REMARK  178  A    between atoms: _430  and  _433
REMARK  179  A    between atoms: _436  and  _438
REMARK  180  A    between atoms: _438  and  _439
REMARK  181  A    between atoms: _442  and  _444
REMARK  182  A    between atoms: _444  and  _445
REMARK  183  A    between atoms: _444  and  _447
REMARK  184  A    between atoms: _447  and  _448
REMARK  185  A    between atoms: _451  and  _453
REMARK  186  A    between atoms: _453  and  _454
REMARK  187  A    between atoms: _453  and  _456
REMARK  188  A    between atoms: _456  and  _457
REMARK  189  A    between atoms: _463  and  _465
REMARK  190  A    between atoms: _465  and  _466
REMARK  191  A    between atoms: _465  and  _468
REMARK  192  A    between atoms: _468  and  _469
REMARK  193  A    between atoms: _472  and  _474
REMARK  194  A    between atoms: _474  and  _475
REMARK  195  A    between atoms: _478  and  _480
REMARK  196  A    between atoms: _480  and  _481
REMARK  197  A    between atoms: _480  and  _483
REMARK  198  A    between atoms: _483  and  _484
REMARK  199  A    between atoms: _484  and  _485
REMARK  200  A    between atoms: _485  and  _486
REMARK  201  A    between atoms: _495  and  _497
REMARK  202  A    between atoms: _497  and  _498
REMARK  203  A    between atoms: _497  and  _500
REMARK  204  A    between atoms: _500  and  _501
REMARK  205  A    between atoms: _504  and  _506
REMARK  206  A    between atoms: _506  and  _507
REMARK  207  A    between atoms: _506  and  _509
REMARK  208  A    between atoms: _509  and  _510
REMARK  209  A    between atoms: _510  and  _511
REMARK  210  A    between atoms: _513  and  _515
REMARK  211  A    between atoms: _515  and  _516
REMARK  212  A    between atoms: _515  and  _518
REMARK  213  A    between atoms: _518  and  _519
REMARK  214  A    between atoms: _524  and  _525
REMARK  215  A    between atoms: _527  and  _529
REMARK  216  A    between atoms: _529  and  _530
REMARK  217  A    between atoms: _529  and  _532
REMARK  218  A    between atoms: _532  and  _533
REMARK  219  A    between atoms: _536  and  _538
REMARK  220  A    between atoms: _538  and  _539
REMARK  221  A    between atoms: _538  and  _541
REMARK  222  A    between atoms: _541  and  _542
REMARK  223  A    between atoms: _542  and  _543
REMARK  224  A    between atoms: _543  and  _544
REMARK  225  A    between atoms: _544  and  _545
REMARK  226  A    between atoms: _549  and  _551
REMARK  227  A    between atoms: _551  and  _552
REMARK  228  A    between atoms: _551  and  _554
REMARK  229  A    between atoms: _554  and  _555
REMARK  230  A    between atoms: _560  and  _561
REMARK  231  A    between atoms: _563  and  _565
REMARK  232  A    between atoms: _565  and  _566
REMARK  233  A    between atoms: _565  and  _568
REMARK  234  A    between atoms: _568  and  _569
REMARK  235  A    between atoms: _574  and  _575
REMARK                            x       y       z     vdW  Elec       q    Type
REMARK                         _______ _______ _______ _____ _____    ______ ____
ROOT
ATOM      1  CA  VAL A   4      17.095   0.732   6.423  0.00  0.00    +0.149 C 
ENDROOT
BRANCH   1   2
ATOM      2  C   VAL A   4      18.458   1.136   5.884  0.00  0.00    +0.241 C 
ATOM      3  N   LYS A   5      19.369   1.466   6.794  0.00  0.00    -0.297 N 
ATOM      4  H   LYS A   5      19.116   1.421   7.802  0.00  0.00    +0.150 HD
ATOM      5  O   VAL A   4      18.679   1.154   4.673  0.00  0.00    -0.273 OA
BRANCH   3   6
ATOM      6  CA  LYS A   5      20.711   1.889   6.419  0.00  0.00    +0.149 C 
BRANCH   6   7
ATOM      7  C   LYS A   5      21.658   0.701   6.457  0.00  0.00    +0.241 C 
ATOM      8  O   LYS A   5      21.877   0.104   7.513  0.00  0.00    -0.273 OA
ATOM      9  N   SER A   6      22.223   0.370   5.301  0.00  0.00    -0.296 N 
ATOM     10  H   SER A   6      21.933   0.866   4.434  0.00  0.00    +0.150 HD
BRANCH   9  11
ATOM     11  CA  SER A   6      23.238  -0.670   5.217  0.00  0.00    +0.166 C 
BRANCH  11  12
ATOM     12  CB  SER A   6      24.596  -0.125   5.661  0.00  0.00    +0.229 C 
ATOM     13  OG  SER A   6      24.936   1.030   5.382  0.00  0.00    -0.286 OA
ENDBRANCH  11  12
BRANCH  11  14
ATOM     14  C   SER A   6      23.338  -1.191   3.780  0.00  0.00    +0.165 C 
BRANCH  14  15
ATOM     15  O   SER A   6      24.376  -2.151   3.657  0.00  0.00    -0.380 OA
ATOM     16  H   SER A   6      24.191  -2.914   4.260  0.00  0.00    +0.211 HD
ENDBRANCH  14  15
ENDBRANCH  11  14
ENDBRANCH   9  11
ENDBRANCH   6   7
BRANCH   6  17
ATOM     17  CB  LYS A   5      21.216   2.973   7.380  0.00  0.00    +0.029 C 
BRANCH  17  18
ATOM     18  CG  LYS A   5      22.636   3.457   7.099  0.00  0.00    +0.000 C 
BRANCH  18  19
ATOM     19  CD  LYS A   5      22.737   4.106   5.724  0.00  0.00    -0.024 C 
BRANCH  19  20
ATOM     20  CE  LYS A   5      23.940   5.041   5.621  0.00  0.00    -0.086 C 
BRANCH  20  21
ATOM     21  NZ  LYS A   5      25.224   4.361   5.929  0.00  0.00    +0.380 N 
ATOM     22  HZ1 LYS A   5      25.193   3.987   6.899  0.00  0.00    -0.089 HD
ATOM     23  HZ2 LYS A   5      26.005   5.042   5.844  0.00  0.00    -0.089 HD
ATOM     24  HZ3 LYS A   5      25.370   3.579   5.259  0.00  0.00    -0.089 HD
ENDBRANCH  20  21
ENDBRANCH  19  20
ENDBRANCH  18  19
ENDBRANCH  17  18
ENDBRANCH   6  17
ENDBRANCH   3   6
ENDBRANCH   1   2
BRANCH   1  27
ATOM     25  C   ALA A   3      15.454   2.443   6.912  0.00  0.00    +0.241 C 
ATOM     26  O   ALA A   3      15.721   2.408   8.113  0.00  0.00    -0.273 OA
ATOM     27  N   VAL A   4      16.073   1.685   6.015  0.00  0.00    -0.297 N 
ATOM     28  H   VAL A   4      15.825   1.773   5.009  0.00  0.00    +0.150 HD
BRANCH  25  29
ATOM     29  CA  ALA A   3      14.374   3.373   6.383  0.00  0.00    +0.149 C 
ATOM     30  CB  ALA A   3      14.880   4.805   6.375  0.00  0.00    +0.031 C 
BRANCH  29  32
ATOM     31  C   CYS A   2      12.100   2.628   6.825  0.00  0.00    +0.242 C 
ATOM     32  N   ALA A   3      13.197   3.261   7.230  0.00  0.00    -0.297 N 
ATOM     33  H   ALA A   3      13.214   3.688   8.178  0.00  0.00    +0.150 HD
ATOM     34  O   CYS A   2      11.932   2.249   5.664  0.00  0.00    -0.273 OA
BRANCH  31  35
ATOM     35  CA  CYS A   2      11.031   2.401   7.886  0.00  0.00    +0.160 C 
BRANCH  35  38
ATOM     36  C   HIS A   1       8.608   2.345   7.716  0.00  0.00    +0.239 C 
ATOM     37  O   HIS A   1       8.477   3.172   8.618  0.00  0.00    -0.274 OA
ATOM     38  N   CYS A   2       9.792   1.919   7.293  0.00  0.00    -0.296 N 
ATOM     39  H   CYS A   2       9.835   1.225   6.520  0.00  0.00    +0.150 HD
BRANCH  36  40
ATOM     40  CA  HIS A   1       7.389   1.746   7.030  0.00  0.00    +0.151 C 
BRANCH  40  41
ATOM     41  N   HIS A   1       6.468   1.281   8.062  0.00  0.00    -0.238 NA
ATOM     42  H   HIS A   1       5.565   1.778   8.200  0.00  0.00    +0.142 HD
ENDBRANCH  40  41
BRANCH  40  43
ATOM     43  CB  HIS A   1       6.712   2.803   6.149  0.00  0.00    +0.074 C 
BRANCH  43  44
ATOM     44  CG  HIS A   1       7.467   3.126   4.895  0.00  0.00    +0.082 A 
ATOM     45  CD2 HIS A   1       8.705   2.766   4.480  0.00  0.00    +0.115 A 
ATOM     46  NE2 HIS A   1       8.892   3.317   3.235  0.00  0.00    -0.221 NA
ATOM     47  CE1 HIS A   1       7.809   3.994   2.898  0.00  0.00    +0.199 A 
ATOM     48  ND1 HIS A   1       6.934   3.896   3.883  0.00  0.00    -0.227 NA
ENDBRANCH  43  44
ENDBRANCH  40  43
ENDBRANCH  36  40
ENDBRANCH  35  38
BRANCH  35  49
ATOM     49  CB  CYS A   2      11.540   1.401   8.927  0.00  0.00    +0.098 C 
ATOM     50  SG  CYS A   2      11.903  -0.250   8.266  0.00  0.00    -0.080 S 
ENDBRANCH  35  49
ENDBRANCH  31  35
ENDBRANCH  29  32
ENDBRANCH  25  29
ENDBRANCH   1  27
BRANCH   1  51
ATOM     51  CB  VAL A   4      16.749  -0.690   5.934  0.00  0.00    +0.027 C 
ATOM     52  CG2 VAL A   4      15.377  -1.098   6.472  0.00  0.00    +0.002 C 
ATOM     53  CG1 VAL A   4      17.821  -1.679   6.395  0.00  0.00    +0.002 C 
ENDBRANCH   1  51
TORSDOF 23
REMARK  Name = ../refined-set-2016/3zze/3zze_pocket.pdb
REMARK  235 active torsions:
REMARK  status: ('A' for Active; 'I' for Inactive)
REMARK    1  A    between atoms: _1  and  _3
REMARK    2  A    between atoms: _3  and  _4
REMARK    3  A    between atoms: _3  and  _6
REMARK    4  A    between atoms: _9  and  _11
REMARK    5  A    between atoms: _11  and  _12
REMARK    6  A    between atoms: _11  and  _14
REMARK    7  A    between atoms: _14  and  _15
REMARK    8  A    between atoms: _18  and  _20
REMARK    9  A    between atoms: _20  and  _21
REMARK   10  A    between atoms: _23  and  _25
REMARK   11  A    between atoms: _25  and  _26
REMARK   12  A    between atoms: _25  and  _28
REMARK   13  A    between atoms: _28  and  _29
REMARK   14  A    between atoms: _29  and  _30
REMARK   15  A    between atoms: _30  and  _31
REMARK   16  A    between atoms: _40  and  _42
REMARK   17  A    between atoms: _42  and  _43
REMARK   18  A    between atoms: _45  and  _47
REMARK   19  A    between atoms: _47  and  _48
REMARK   20  A    between atoms: _50  and  _52
REMARK   21  A    between atoms: _52  and  _53
REMARK   22  A    between atoms: _52  and  _55
REMARK   23  A    between atoms: _57  and  _59
REMARK   24  A    between atoms: _59  and  _60
REMARK   25  A    between atoms: _59  and  _62
REMARK   26  A    between atoms: _65  and  _67
REMARK   27  A    between atoms: _67  and  _68
REMARK   28  A    between atoms: _67  and  _70
REMARK   29  A    between atoms: _70  and  _71
REMARK   30  A    between atoms: _76  and  _77
REMARK   31  A    between atoms: _79  and  _81
REMARK   32  A    between atoms: _81  and  _82
REMARK   33  A    between atoms: _81  and  _84
REMARK   34  A    between atoms: _84  and  _85
REMARK   35  A    between atoms: _90  and  _92
REMARK   36  A    between atoms: _92  and  _93
REMARK   37  A    between atoms: _95  and  _97
REMARK   38  A    between atoms: _97  and  _98
REMARK   39  A    between atoms: _97  and  _100
REMARK   40  A    between atoms: _100  and  _101
REMARK   41  A    between atoms: _106  and  _108
REMARK   42  A    between atoms: _108  and  _109
REMARK   43  A    between atoms: _108  and  _111
REMARK   44  A    between atoms: _113  and  _115
REMARK   45  A    between atoms: _115  and  _116
REMARK   46  A    between atoms: _119  and  _121
REMARK   47  A    between atoms: _121  and  _122
REMARK   48  A    between atoms: _121  and  _124
REMARK   49  A    between atoms: _127  and  _129
REMARK   50  A    between atoms: _129  and  _130
REMARK   51  A    between atoms: _129  and  _132
REMARK   52  A    between atoms: _132  and  _133
REMARK   53  A    between atoms: _133  and  _134
REMARK   54  A    between atoms: _134  and  _135
REMARK   55  A    between atoms: _135  and  _136
REMARK   56  A    between atoms: _140  and  _142
REMARK   57  A    between atoms: _142  and  _143
REMARK   58  A    between atoms: _142  and  _145
REMARK   59  A    between atoms: _145  and  _146
REMARK   60  A    between atoms: _148  and  _150
REMARK   61  A    between atoms: _150  and  _151
REMARK   62  A    between atoms: _150  and  _153
REMARK   63  A    between atoms: _153  and  _154
REMARK   64  A    between atoms: _154  and  _155
REMARK   65  A    between atoms: _157  and  _159
REMARK   66  A    between atoms: _159  and  _160
REMARK   67  A    between atoms: _159  and  _162
REMARK   68  A    between atoms: _162  and  _163
REMARK   69  A    between atoms: _166  and  _168
REMARK   70  A    between atoms: _168  and  _169
REMARK   71  A    between atoms: _168  and  _171
REMARK   72  A    between atoms: _171  and  _172
REMARK   73  A    between atoms: _174  and  _176
REMARK   74  A    between atoms: _176  and  _177
REMARK   75  A    between atoms: _176  and  _179
REMARK   76  A    between atoms: _182  and  _184
REMARK   77  A    between atoms: _184  and  _185
REMARK   78  A    between atoms: _184  and  _187
REMARK   79  A    between atoms: _190  and  _192
REMARK   80  A    between atoms: _192  and  _193
REMARK   81  A    between atoms: _192  and  _195
REMARK   82  A    between atoms: _195  and  _196
REMARK   83  A    between atoms: _200  and  _201
REMARK   84  A    between atoms: _206  and  _208
REMARK   85  A    between atoms: _208  and  _209
REMARK   86  A    between atoms: _208  and  _211
REMARK   87  A    between atoms: _211  and  _212
REMARK   88  A    between atoms: _217  and  _218
REMARK   89  A    between atoms: _220  and  _222
REMARK   90  A    between atoms: _222  and  _223
REMARK   91  A    between atoms: _222  and  _225
REMARK   92  A    between atoms: _225  and  _226
REMARK   93  A    between atoms: _226  and  _227
REMARK   94  A    between atoms: _229  and  _231
REMARK   95  A    between atoms: _231  and  _232
REMARK   96  A    between atoms: _231  and  _234
REMARK   97  A    between atoms: _234  and  _235
REMARK   98  A    between atoms: _235  and  _236
REMARK   99  A    between atoms: _236  and  _237
REMARK  100  A    between atoms: _237  and  _238
REMARK  101  A    between atoms: _242  and  _244
REMARK  102  A    between atoms: _244  and  _245
REMARK  103  A    between atoms: _244  and  _247
REMARK  104  A    between atoms: _247  and  _248
REMARK  105  A    between atoms: _253  and  _255
REMARK  106  A    between atoms: _255  and  _256
REMARK  107  A    between atoms: _258  and  _260
REMARK  108  A    between atoms: _260  and  _261
REMARK  109  A    between atoms: _260  and  _263
REMARK  110  A    between atoms: _263  and  _264
REMARK  111  A    between atoms: _267  and  _269
REMARK  112  A    between atoms: _269  and  _270
REMARK  113  A    between atoms: _269  and  _272
REMARK  114  A    between atoms: _272  and  _273
REMARK  115  A    between atoms: _276  and  _278
REMARK  116  A    between atoms: _278  and  _279
REMARK  117  A    between atoms: _278  and  _281
REMARK  118  A    between atoms: _281  and  _282
REMARK  119  A    between atoms: _282  and  _283
REMARK  120  A    between atoms: _283  and  _284
REMARK  121  A    between atoms: _293  and  _295
REMARK  122  A    between atoms: _295  and  _296
REMARK  123  A    between atoms: _295  and  _298
REMARK  124  A    between atoms: _298  and  _299
REMARK  125  A    between atoms: _304  and  _306
REMARK  126  A    between atoms: _306  and  _307
REMARK  127  A    between atoms: _306  and  _309
REMARK  128  A    between atoms: _309  and  _310
REMARK  129  A    between atoms: _310  and  _311
REMARK  130  A    between atoms: _311  and  _312
REMARK  131  A    between atoms: _321  and  _323
REMARK  132  A    between atoms: _323  and  _324
REMARK  133  A    between atoms: _323  and  _326
REMARK  134  A    between atoms: _326  and  _327
REMARK  135  A    between atoms: _332  and  _334
REMARK  136  A    between atoms: _334  and  _335
REMARK  137  A    between atoms: _334  and  _337
REMARK  138  A    between atoms: _337  and  _338
REMARK  139  A    between atoms: _341  and  _343
REMARK  140  A    between atoms: _343  and  _344
REMARK  141  A    between atoms: _347  and  _349
REMARK  142  A    between atoms: _349  and  _350
REMARK  143  A    between atoms: _353  and  _355
REMARK  144  A    between atoms: _355  and  _356
REMARK  145  A    between atoms: _355  and  _358
REMARK  146  A    between atoms: _358  and  _359
REMARK  147  A    between atoms: _359  and  _360
REMARK  148  A    between atoms: _360  and  _361
REMARK  149  A    between atoms: _370  and  _372
REMARK  150  A    between atoms: _372  and  _373
REMARK  151  A    between atoms: _372  and  _375
REMARK  152  A    between atoms: _375  and  _376
REMARK  153  A    between atoms: _381  and  _383
REMARK  154  A    between atoms: _383  and  _384
REMARK  155  A    between atoms: _383  and  _386
REMARK  156  A    between atoms: _388  and  _390
REMARK  157  A    between atoms: _390  and  _391
REMARK  158  A    between atoms: _390  and  _393
REMARK  159  A    between atoms: _393  and  _394
REMARK  160  A    between atoms: _394  and  _395
REMARK  161  A    between atoms: _397  and  _399
REMARK  162  A    between atoms: _399  and  _400
REMARK  163  A    between atoms: _399  and  _402
REMARK  164  A    between atoms: _402  and  _403
REMARK  165  A    between atoms: _406  and  _408
REMARK  166  A    between atoms: _408  and  _409
REMARK  167  A    between atoms: _408  and  _411
REMARK  168  A    between atoms: _411  and  _412
REMARK  169  A    between atoms: _415  and  _417
REMARK  170  A    between atoms: _417  and  _418
REMARK  171  A    between atoms: _417  and  _420
REMARK  172  A    between atoms: _420  and  _421
REMARK  173  A    between atoms: _421  and  _422
REMARK  174  A    between atoms: _422  and  _423
REMARK  175  A    between atoms: _423  and  _424
REMARK  176  A    between atoms: _428  and  _430
REMARK  177  A    between atoms: _430  and  _431
REMARK  178  A    between atoms: _430  and  _433
REMARK  179  A    between atoms: _436  and  _438
REMARK  180  A    between atoms: _438  and  _439
REMARK  181  A    between atoms: _442  and  _444
REMARK  182  A    between atoms: _444  and  _445
REMARK  183  A    between atoms: _444  and  _447
REMARK  184  A    between atoms: _447  and  _448
REMARK  185  A    between atoms: _451  and  _453
REMARK  186  A    between atoms: _453  and  _454
REMARK  187  A    between atoms: _453  and  _456
REMARK  188  A    between atoms: _456  and  _457
REMARK  189  A    between atoms: _463  and  _465
REMARK  190  A    between atoms: _465  and  _466
REMARK  191  A    between atoms: _465  and  _468
REMARK  192  A    between atoms: _468  and  _469
REMARK  193  A    between atoms: _472  and  _474
REMARK  194  A    between atoms: _474  and  _475
REMARK  195  A    between atoms: _478  and  _480
REMARK  196  A    between atoms: _480  and  _481
REMARK  197  A    between atoms: _480  and  _483
REMARK  198  A    between atoms: _483  and  _484
REMARK  199  A    between atoms: _484  and  _485
REMARK  200  A    between atoms: _485  and  _486
REMARK  201  A    between atoms: _495  and  _497
REMARK  202  A    between atoms: _497  and  _498
REMARK  203  A    between atoms: _497  and  _500
REMARK  204  A    between atoms: _500  and  _501
REMARK  205  A    between atoms: _504  and  _506
REMARK  206  A    between atoms: _506  and  _507
REMARK  207  A    between atoms: _506  and  _509
REMARK  208  A    between atoms: _509  and  _510
REMARK  209  A    between atoms: _510  and  _511
REMARK  210  A    between atoms: _513  and  _515
REMARK  211  A    between atoms: _515  and  _516
REMARK  212  A    between atoms: _515  and  _518
REMARK  213  A    between atoms: _518  and  _519
REMARK  214  A    between atoms: _524  and  _525
REMARK  215  A    between atoms: _527  and  _529
REMARK  216  A    between atoms: _529  and  _530
REMARK  217  A    between atoms: _529  and  _532
REMARK  218  A    between atoms: _532  and  _533
REMARK  219  A    between atoms: _536  and  _538
REMARK  220  A    between atoms: _538  and  _539
REMARK  221  A    between atoms: _538  and  _541
REMARK  222  A    between atoms: _541  and  _542
REMARK  223  A    between atoms: _542  and  _543
REMARK  224  A    between atoms: _543  and  _544
REMARK  225  A    between atoms: _544  and  _545
REMARK  226  A    between atoms: _549  and  _551
REMARK  227  A    between atoms: _551  and  _552
REMARK  228  A    between atoms: _551  and  _554
REMARK  229  A    between atoms: _554  and  _555
REMARK  230  A    between atoms: _560  and  _561
REMARK  231  A    between atoms: _563  and  _565
REMARK  232  A    between atoms: _565  and  _566
REMARK  233  A    between atoms: _565  and  _568
REMARK  234  A    between atoms: _568  and  _569
REMARK  235  A    between atoms: _574  and  _575
REMARK                            x       y       z     vdW  Elec       q    Type
REMARK                         _______ _______ _______ _____ _____    ______ ____
ROOT
ATOM      1  CA  MET A   1      21.582   7.265  20.053  0.00  0.00    +0.134 C 
ENDROOT
BRANCH   1   2
ATOM      2  N   MET A   1      22.803   6.659  20.572  0.00  0.00    -0.239 NA
ATOM      3  H   MET A   1      23.521   6.293  19.915  0.00  0.00    +0.142 HD
ENDBRANCH   1   2
BRANCH   1   4
ATOM      4  C   MET A   1      20.343   6.508  20.528  0.00  0.00    +0.224 C 
ATOM      5  O   MET A   1      19.232   7.025  20.451  0.00  0.00    -0.287 OA
ENDBRANCH   1   4
BRANCH   1   6
ATOM      6  CB  MET A   1      21.602   7.320  18.518  0.00  0.00    +0.037 C 
BRANCH   6   7
ATOM      7  CG  MET A   1      21.376   5.989  17.824  0.00  0.00    +0.059 C 
BRANCH   7   8
ATOM      8  SD  MET A   1      21.434   6.107  16.014  0.00  0.00    -0.139 S 
ATOM      9  CE  MET A   1      20.205   7.365  15.686  0.00  0.00    +0.069 C 
ENDBRANCH   7   8
ENDBRANCH   6   7
ENDBRANCH   1   6
TORSDOF 5
REMARK  Name = ../refined-set-2016/3zze/3zze_pocket.pdb
REMARK  235 active torsions:
REMARK  status: ('A' for Active; 'I' for Inactive)
REMARK    1  A    between atoms: _1  and  _3
REMARK    2  A    between atoms: _3  and  _4
REMARK    3  A    between atoms: _3  and  _6
REMARK    4  A    between atoms: _9  and  _11
REMARK    5  A    between atoms: _11  and  _12
REMARK    6  A    between atoms: _11  and  _14
REMARK    7  A    between atoms: _14  and  _15
REMARK    8  A    between atoms: _18  and  _20
REMARK    9  A    between atoms: _20  and  _21
REMARK   10  A    between atoms: _23  and  _25
REMARK   11  A    between atoms: _25  and  _26
REMARK   12  A    between atoms: _25  and  _28
REMARK   13  A    between atoms: _28  and  _29
REMARK   14  A    between atoms: _29  and  _30
REMARK   15  A    between atoms: _30  and  _31
REMARK   16  A    between atoms: _40  and  _42
REMARK   17  A    between atoms: _42  and  _43
REMARK   18  A    between atoms: _45  and  _47
REMARK   19  A    between atoms: _47  and  _48
REMARK   20  A    between atoms: _50  and  _52
REMARK   21  A    between atoms: _52  and  _53
REMARK   22  A    between atoms: _52  and  _55
REMARK   23  A    between atoms: _57  and  _59
REMARK   24  A    between atoms: _59  and  _60
REMARK   25  A    between atoms: _59  and  _62
REMARK   26  A    between atoms: _65  and  _67
REMARK   27  A    between atoms: _67  and  _68
REMARK   28  A    between atoms: _67  and  _70
REMARK   29  A    between atoms: _70  and  _71
REMARK   30  A    between atoms: _76  and  _77
REMARK   31  A    between atoms: _79  and  _81
REMARK   32  A    between atoms: _81  and  _82
REMARK   33  A    between atoms: _81  and  _84
REMARK   34  A    between atoms: _84  and  _85
REMARK   35  A    between atoms: _90  and  _92
REMARK   36  A    between atoms: _92  and  _93
REMARK   37  A    between atoms: _95  and  _97
REMARK   38  A    between atoms: _97  and  _98
REMARK   39  A    between atoms: _97  and  _100
REMARK   40  A    between atoms: _100  and  _101
REMARK   41  A    between atoms: _106  and  _108
REMARK   42  A    between atoms: _108  and  _109
REMARK   43  A    between atoms: _108  and  _111
REMARK   44  A    between atoms: _113  and  _115
REMARK   45  A    between atoms: _115  and  _116
REMARK   46  A    between atoms: _119  and  _121
REMARK   47  A    between atoms: _121  and  _122
REMARK   48  A    between atoms: _121  and  _124
REMARK   49  A    between atoms: _127  and  _129
REMARK   50  A    between atoms: _129  and  _130
REMARK   51  A    between atoms: _129  and  _132
REMARK   52  A    between atoms: _132  and  _133
REMARK   53  A    between atoms: _133  and  _134
REMARK   54  A    between atoms: _134  and  _135
REMARK   55  A    between atoms: _135  and  _136
REMARK   56  A    between atoms: _140  and  _142
REMARK   57  A    between atoms: _142  and  _143
REMARK   58  A    between atoms: _142  and  _145
REMARK   59  A    between atoms: _145  and  _146
REMARK   60  A    between atoms: _148  and  _150
REMARK   61  A    between atoms: _150  and  _151
REMARK   62  A    between atoms: _150  and  _153
REMARK   63  A    between atoms: _153  and  _154
REMARK   64  A    between atoms: _154  and  _155
REMARK   65  A    between atoms: _157  and  _159
REMARK   66  A    between atoms: _159  and  _160
REMARK   67  A    between atoms: _159  and  _162
REMARK   68  A    between atoms: _162  and  _163
REMARK   69  A    between atoms: _166  and  _168
REMARK   70  A    between atoms: _168  and  _169
REMARK   71  A    between atoms: _168  and  _171
REMARK   72  A    between atoms: _171  and  _172
REMARK   73  A    between atoms: _174  and  _176
REMARK   74  A    between atoms: _176  and  _177
REMARK   75  A    between atoms: _176  and  _179
REMARK   76  A    between atoms: _182  and  _184
REMARK   77  A    between atoms: _184  and  _185
REMARK   78  A    between atoms: _184  and  _187
REMARK   79  A    between atoms: _190  and  _192
REMARK   80  A    between atoms: _192  and  _193
REMARK   81  A    between atoms: _192  and  _195
REMARK   82  A    between atoms: _195  and  _196
REMARK   83  A    between atoms: _200  and  _201
REMARK   84  A    between atoms: _206  and  _208
REMARK   85  A    between atoms: _208  and  _209
REMARK   86  A    between atoms: _208  and  _211
REMARK   87  A    between atoms: _211  and  _212
REMARK   88  A    between atoms: _217  and  _218
REMARK   89  A    between atoms: _220  and  _222
REMARK   90  A    between atoms: _222  and  _223
REMARK   91  A    between atoms: _222  and  _225
REMARK   92  A    between atoms: _225  and  _226
REMARK   93  A    between atoms: _226  and  _227
REMARK   94  A    between atoms: _229  and  _231
REMARK   95  A    between atoms: _231  and  _232
REMARK   96  A    between atoms: _231  and  _234
REMARK   97  A    between atoms: _234  and  _235
REMARK   98  A    between atoms: _235  and  _236
REMARK   99  A    between atoms: _236  and  _237
REMARK  100  A    between atoms: _237  and  _238
REMARK  101  A    between atoms: _242  and  _244
REMARK  102  A    between atoms: _244  and  _245
REMARK  103  A    between atoms: _244  and  _247
REMARK  104  A    between atoms: _247  and  _248
REMARK  105  A    between atoms: _253  and  _255
REMARK  106  A    between atoms: _255  and  _256
REMARK  107  A    between atoms: _258  and  _260
REMARK  108  A    between atoms: _260  and  _261
REMARK  109  A    between atoms: _260  and  _263
REMARK  110  A    between atoms: _263  and  _264
REMARK  111  A    between atoms: _267  and  _269
REMARK  112  A    between atoms: _269  and  _270
REMARK  113  A    between atoms: _269  and  _272
REMARK  114  A    between atoms: _272  and  _273
REMARK  115  A    between atoms: _276  and  _278
REMARK  116  A    between atoms: _278  and  _279
REMARK  117  A    between atoms: _278  and  _281
REMARK  118  A    between atoms: _281  and  _282
REMARK  119  A    between atoms: _282  and  _283
REMARK  120  A    between atoms: _283  and  _284
REMARK  121  A    between atoms: _293  and  _295
REMARK  122  A    between atoms: _295  and  _296
REMARK  123  A    between atoms: _295  and  _298
REMARK  124  A    between atoms: _298  and  _299
REMARK  125  A    between atoms: _304  and  _306
REMARK  126  A    between atoms: _306  and  _307
REMARK  127  A    between atoms: _306  and  _309
REMARK  128  A    between atoms: _309  and  _310
REMARK  129  A    between atoms: _310  and  _311
REMARK  130  A    between atoms: _311  and  _312
REMARK  131  A    between atoms: _321  and  _323
REMARK  132  A    between atoms: _323  and  _324
REMARK  133  A    between atoms: _323  and  _326
REMARK  134  A    between atoms: _326  and  _327
REMARK  135  A    between atoms: _332  and  _334
REMARK  136  A    between atoms: _334  and  _335
REMARK  137  A    between atoms: _334  and  _337
REMARK  138  A    between atoms: _337  and  _338
REMARK  139  A    between atoms: _341  and  _343
REMARK  140  A    between atoms: _343  and  _344
REMARK  141  A    between atoms: _347  and  _349
REMARK  142  A    between atoms: _349  and  _350
REMARK  143  A    between atoms: _353  and  _355
REMARK  144  A    between atoms: _355  and  _356
REMARK  145  A    between atoms: _355  and  _358
REMARK  146  A    between atoms: _358  and  _359
REMARK  147  A    between atoms: _359  and  _360
REMARK  148  A    between atoms: _360  and  _361
REMARK  149  A    between atoms: _370  and  _372
REMARK  150  A    between atoms: _372  and  _373
REMARK  151  A    between atoms: _372  and  _375
REMARK  152  A    between atoms: _375  and  _376
REMARK  153  A    between atoms: _381  and  _383
REMARK  154  A    between atoms: _383  and  _384
REMARK  155  A    between atoms: _383  and  _386
REMARK  156  A    between atoms: _388  and  _390
REMARK  157  A    between atoms: _390  and  _391
REMARK  158  A    between atoms: _390  and  _393
REMARK  159  A    between atoms: _393  and  _394
REMARK  160  A    between atoms: _394  and  _395
REMARK  161  A    between atoms: _397  and  _399
REMARK  162  A    between atoms: _399  and  _400
REMARK  163  A    between atoms: _399  and  _402
REMARK  164  A    between atoms: _402  and  _403
REMARK  165  A    between atoms: _406  and  _408
REMARK  166  A    between atoms: _408  and  _409
REMARK  167  A    between atoms: _408  and  _411
REMARK  168  A    between atoms: _411  and  _412
REMARK  169  A    between atoms: _415  and  _417
REMARK  170  A    between atoms: _417  and  _418
REMARK  171  A    between atoms: _417  and  _420
REMARK  172  A    between atoms: _420  and  _421
REMARK  173  A    between atoms: _421  and  _422
REMARK  174  A    between atoms: _422  and  _423
REMARK  175  A    between atoms: _423  and  _424
REMARK  176  A    between atoms: _428  and  _430
REMARK  177  A    between atoms: _430  and  _431
REMARK  178  A    between atoms: _430  and  _433
REMARK  179  A    between atoms: _436  and  _438
REMARK  180  A    between atoms: _438  and  _439
REMARK  181  A    between atoms: _442  and  _444
REMARK  182  A    between atoms: _444  and  _445
REMARK  183  A    between atoms: _444  and  _447
REMARK  184  A    between atoms: _447  and  _448
REMARK  185  A    between atoms: _451  and  _453
REMARK  186  A    between atoms: _453  and  _454
REMARK  187  A    between atoms: _453  and  _456
REMARK  188  A    between atoms: _456  and  _457
REMARK  189  A    between atoms: _463  and  _465
REMARK  190  A    between atoms: _465  and  _466
REMARK  191  A    between atoms: _465  and  _468
REMARK  192  A    between atoms: _468  and  _469
REMARK  193  A    between atoms: _472  and  _474
REMARK  194  A    between atoms: _474  and  _475
REMARK  195  A    between atoms: _478  and  _480
REMARK  196  A    between atoms: _480  and  _481
REMARK  197  A    between atoms: _480  and  _483
REMARK  198  A    between atoms: _483  and  _484
REMARK  199  A    between atoms: _484  and  _485
REMARK  200  A    between atoms: _485  and  _486
REMARK  201  A    between atoms: _495  and  _497
REMARK  202  A    between atoms: _497  and  _498
REMARK  203  A    between atoms: _497  and  _500
REMARK  204  A    between atoms: _500  and  _501
REMARK  205  A    between atoms: _504  and  _506
REMARK  206  A    between atoms: _506  and  _507
REMARK  207  A    between atoms: _506  and  _509
REMARK  208  A    between atoms: _509  and  _510
REMARK  209  A    between atoms: _510  and  _511
REMARK  210  A    between atoms: _513  and  _515
REMARK  211  A    between atoms: _515  and  _516
REMARK  212  A    between atoms: _515  and  _518
REMARK  213  A    between atoms: _518  and  _519
REMARK  214  A    between atoms: _524  and  _525
REMARK  215  A    between atoms: _527  and  _529
REMARK  216  A    between atoms: _529  and  _530
REMARK  217  A    between atoms: _529  and  _532
REMARK  218  A    between atoms: _532  and  _533
REMARK  219  A    between atoms: _536  and  _538
REMARK  220  A    between atoms: _538  and  _539
REMARK  221  A    between atoms: _538  and  _541
REMARK  222  A    between atoms: _541  and  _542
REMARK  223  A    between atoms: _542  and  _543
REMARK  224  A    between atoms: _543  and  _544
REMARK  225  A    between atoms: _544  and  _545
REMARK  226  A    between atoms: _549  and  _551
REMARK  227  A    between atoms: _551  and  _552
REMARK  228  A    between atoms: _551  and  _554
REMARK  229  A    between atoms: _554  and  _555
REMARK  230  A    between atoms: _560  and  _561
REMARK  231  A    between atoms: _563  and  _565
REMARK  232  A    between atoms: _565  and  _566
REMARK  233  A    between atoms: _565  and  _568
REMARK  234  A    between atoms: _568  and  _569
REMARK  235  A    between atoms: _574  and  _575
REMARK                            x       y       z     vdW  Elec       q    Type
REMARK                         _______ _______ _______ _____ _____    ______ ____
ROOT
ATOM      1  C   LEU A   1      16.255  10.093  15.649  0.00  0.00    +0.238 C 
ATOM      2  O   LEU A   1      17.294  10.016  16.307  0.00  0.00    -0.274 OA
ATOM      3  N   SER A   2      15.259   9.224  15.775  0.00  0.00    -0.296 N 
ATOM      4  H   SER A   2      14.404   9.333  15.193  0.00  0.00    +0.150 HD
ENDROOT
BRANCH   1   5
ATOM      5  CA  LEU A   1      16.060  11.209  14.629  0.00  0.00    +0.145 C 
BRANCH   5   6
ATOM      6  N   LEU A   1      16.377  12.502  15.233  0.00  0.00    -0.238 NA
ATOM      7  H   LEU A   1      17.138  13.086  14.831  0.00  0.00    +0.142 HD
ENDBRANCH   5   6
BRANCH   5   8
ATOM      8  CB  LEU A   1      16.961  10.940  13.424  0.00  0.00    +0.026 C 
BRANCH   8   9
ATOM      9  CG  LEU A   1      16.680   9.618  12.700  0.00  0.00    +0.002 C 
ATOM     10  CD2 LEU A   1      15.371   9.732  11.935  0.00  0.00    +0.000 C 
ATOM     11  CD1 LEU A   1      17.831   9.285  11.755  0.00  0.00    +0.000 C 
ENDBRANCH   8   9
ENDBRANCH   5   8
ENDBRANCH   1   5
BRANCH   3  12
ATOM     12  CA  SER A   2      15.353   8.122  16.719  0.00  0.00    +0.166 C 
BRANCH  12  13
ATOM     13  CB  SER A   2      15.823   6.841  16.035  0.00  0.00    +0.229 C 
ATOM     14  OG  SER A   2      15.788   6.722  14.811  0.00  0.00    -0.286 OA
ENDBRANCH  12  13
BRANCH  12  15
ATOM     15  C   SER A   2      13.997   7.880  17.391  0.00  0.00    +0.165 C 
BRANCH  15  16
ATOM     16  O   SER A   2      13.029   7.488  16.439  0.00  0.00    -0.380 OA
ATOM     17  H   SER A   2      12.927   8.202  15.761  0.00  0.00    +0.211 HD
ENDBRANCH  15  16
ENDBRANCH  12  15
ENDBRANCH   3  12
TORSDOF 8
REMARK  Name = ../refined-set-2016/3zze/3zze_pocket.pdb
REMARK  235 active torsions:
REMARK  status: ('A' for Active; 'I' for Inactive)
REMARK    1  A    between atoms: _1  and  _3
REMARK    2  A    between atoms: _3  and  _4
REMARK    3  A    between atoms: _3  and  _6
REMARK    4  A    between atoms: _9  and  _11
REMARK    5  A    between atoms: _11  and  _12
REMARK    6  A    between atoms: _11  and  _14
REMARK    7  A    between atoms: _14  and  _15
REMARK    8  A    between atoms: _18  and  _20
REMARK    9  A    between atoms: _20  and  _21
REMARK   10  A    between atoms: _23  and  _25
REMARK   11  A    between atoms: _25  and  _26
REMARK   12  A    between atoms: _25  and  _28
REMARK   13  A    between atoms: _28  and  _29
REMARK   14  A    between atoms: _29  and  _30
REMARK   15  A    between atoms: _30  and  _31
REMARK   16  A    between atoms: _40  and  _42
REMARK   17  A    between atoms: _42  and  _43
REMARK   18  A    between atoms: _45  and  _47
REMARK   19  A    between atoms: _47  and  _48
REMARK   20  A    between atoms: _50  and  _52
REMARK   21  A    between atoms: _52  and  _53
REMARK   22  A    between atoms: _52  and  _55
REMARK   23  A    between atoms: _57  and  _59
REMARK   24  A    between atoms: _59  and  _60
REMARK   25  A    between atoms: _59  and  _62
REMARK   26  A    between atoms: _65  and  _67
REMARK   27  A    between atoms: _67  and  _68
REMARK   28  A    between atoms: _67  and  _70
REMARK   29  A    between atoms: _70  and  _71
REMARK   30  A    between atoms: _76  and  _77
REMARK   31  A    between atoms: _79  and  _81
REMARK   32  A    between atoms: _81  and  _82
REMARK   33  A    between atoms: _81  and  _84
REMARK   34  A    between atoms: _84  and  _85
REMARK   35  A    between atoms: _90  and  _92
REMARK   36  A    between atoms: _92  and  _93
REMARK   37  A    between atoms: _95  and  _97
REMARK   38  A    between atoms: _97  and  _98
REMARK   39  A    between atoms: _97  and  _100
REMARK   40  A    between atoms: _100  and  _101
REMARK   41  A    between atoms: _106  and  _108
REMARK   42  A    between atoms: _108  and  _109
REMARK   43  A    between atoms: _108  and  _111
REMARK   44  A    between atoms: _113  and  _115
REMARK   45  A    between atoms: _115  and  _116
REMARK   46  A    between atoms: _119  and  _121
REMARK   47  A    between atoms: _121  and  _122
REMARK   48  A    between atoms: _121  and  _124
REMARK   49  A    between atoms: _127  and  _129
REMARK   50  A    between atoms: _129  and  _130
REMARK   51  A    between atoms: _129  and  _132
REMARK   52  A    between atoms: _132  and  _133
REMARK   53  A    between atoms: _133  and  _134
REMARK   54  A    between atoms: _134  and  _135
REMARK   55  A    between atoms: _135  and  _136
REMARK   56  A    between atoms: _140  and  _142
REMARK   57  A    between atoms: _142  and  _143
REMARK   58  A    between atoms: _142  and  _145
REMARK   59  A    between atoms: _145  and  _146
REMARK   60  A    between atoms: _148  and  _150
REMARK   61  A    between atoms: _150  and  _151
REMARK   62  A    between atoms: _150  and  _153
REMARK   63  A    between atoms: _153  and  _154
REMARK   64  A    between atoms: _154  and  _155
REMARK   65  A    between atoms: _157  and  _159
REMARK   66  A    between atoms: _159  and  _160
REMARK   67  A    between atoms: _159  and  _162
REMARK   68  A    between atoms: _162  and  _163
REMARK   69  A    between atoms: _166  and  _168
REMARK   70  A    between atoms: _168  and  _169
REMARK   71  A    between atoms: _168  and  _171
REMARK   72  A    between atoms: _171  and  _172
REMARK   73  A    between atoms: _174  and  _176
REMARK   74  A    between atoms: _176  and  _177
REMARK   75  A    between atoms: _176  and  _179
REMARK   76  A    between atoms: _182  and  _184
REMARK   77  A    between atoms: _184  and  _185
REMARK   78  A    between atoms: _184  and  _187
REMARK   79  A    between atoms: _190  and  _192
REMARK   80  A    between atoms: _192  and  _193
REMARK   81  A    between atoms: _192  and  _195
REMARK   82  A    between atoms: _195  and  _196
REMARK   83  A    between atoms: _200  and  _201
REMARK   84  A    between atoms: _206  and  _208
REMARK   85  A    between atoms: _208  and  _209
REMARK   86  A    between atoms: _208  and  _211
REMARK   87  A    between atoms: _211  and  _212
REMARK   88  A    between atoms: _217  and  _218
REMARK   89  A    between atoms: _220  and  _222
REMARK   90  A    between atoms: _222  and  _223
REMARK   91  A    between atoms: _222  and  _225
REMARK   92  A    between atoms: _225  and  _226
REMARK   93  A    between atoms: _226  and  _227
REMARK   94  A    between atoms: _229  and  _231
REMARK   95  A    between atoms: _231  and  _232
REMARK   96  A    between atoms: _231  and  _234
REMARK   97  A    between atoms: _234  and  _235
REMARK   98  A    between atoms: _235  and  _236
REMARK   99  A    between atoms: _236  and  _237
REMARK  100  A    between atoms: _237  and  _238
REMARK  101  A    between atoms: _242  and  _244
REMARK  102  A    between atoms: _244  and  _245
REMARK  103  A    between atoms: _244  and  _247
REMARK  104  A    between atoms: _247  and  _248
REMARK  105  A    between atoms: _253  and  _255
REMARK  106  A    between atoms: _255  and  _256
REMARK  107  A    between atoms: _258  and  _260
REMARK  108  A    between atoms: _260  and  _261
REMARK  109  A    between atoms: _260  and  _263
REMARK  110  A    between atoms: _263  and  _264
REMARK  111  A    between atoms: _267  and  _269
REMARK  112  A    between atoms: _269  and  _270
REMARK  113  A    between atoms: _269  and  _272
REMARK  114  A    between atoms: _272  and  _273
REMARK  115  A    between atoms: _276  and  _278
REMARK  116  A    between atoms: _278  and  _279
REMARK  117  A    between atoms: _278  and  _281
REMARK  118  A    between atoms: _281  and  _282
REMARK  119  A    between atoms: _282  and  _283
REMARK  120  A    between atoms: _283  and  _284
REMARK  121  A    between atoms: _293  and  _295
REMARK  122  A    between atoms: _295  and  _296
REMARK  123  A    between atoms: _295  and  _298
REMARK  124  A    between atoms: _298  and  _299
REMARK  125  A    between atoms: _304  and  _306
REMARK  126  A    between atoms: _306  and  _307
REMARK  127  A    between atoms: _306  and  _309
REMARK  128  A    between atoms: _309  and  _310
REMARK  129  A    between atoms: _310  and  _311
REMARK  130  A    between atoms: _311  and  _312
REMARK  131  A    between atoms: _321  and  _323
REMARK  132  A    between atoms: _323  and  _324
REMARK  133  A    between atoms: _323  and  _326
REMARK  134  A    between atoms: _326  and  _327
REMARK  135  A    between atoms: _332  and  _334
REMARK  136  A    between atoms: _334  and  _335
REMARK  137  A    between atoms: _334  and  _337
REMARK  138  A    between atoms: _337  and  _338
REMARK  139  A    between atoms: _341  and  _343
REMARK  140  A    between atoms: _343  and  _344
REMARK  141  A    between atoms: _347  and  _349
REMARK  142  A    between atoms: _349  and  _350
REMARK  143  A    between atoms: _353  and  _355
REMARK  144  A    between atoms: _355  and  _356
REMARK  145  A    between atoms: _355  and  _358
REMARK  146  A    between atoms: _358  and  _359
REMARK  147  A    between atoms: _359  and  _360
REMARK  148  A    between atoms: _360  and  _361
REMARK  149  A    between atoms: _370  and  _372
REMARK  150  A    between atoms: _372  and  _373
REMARK  151  A    between atoms: _372  and  _375
REMARK  152  A    between atoms: _375  and  _376
REMARK  153  A    between atoms: _381  and  _383
REMARK  154  A    between atoms: _383  and  _384
REMARK  155  A    between atoms: _383  and  _386
REMARK  156  A    between atoms: _388  and  _390
REMARK  157  A    between atoms: _390  and  _391
REMARK  158  A    between atoms: _390  and  _393
REMARK  159  A    between atoms: _393  and  _394
REMARK  160  A    between atoms: _394  and  _395
REMARK  161  A    between atoms: _397  and  _399
REMARK  162  A    between atoms: _399  and  _400
REMARK  163  A    between atoms: _399  and  _402
REMARK  164  A    between atoms: _402  and  _403
REMARK  165  A    between atoms: _406  and  _408
REMARK  166  A    between atoms: _408  and  _409
REMARK  167  A    between atoms: _408  and  _411
REMARK  168  A    between atoms: _411  and  _412
REMARK  169  A    between atoms: _415  and  _417
REMARK  170  A    between atoms: _417  and  _418
REMARK  171  A    between atoms: _417  and  _420
REMARK  172  A    between atoms: _420  and  _421
REMARK  173  A    between atoms: _421  and  _422
REMARK  174  A    between atoms: _422  and  _423
REMARK  175  A    between atoms: _423  and  _424
REMARK  176  A    between atoms: _428  and  _430
REMARK  177  A    between atoms: _430  and  _431
REMARK  178  A    between atoms: _430  and  _433
REMARK  179  A    between atoms: _436  and  _438
REMARK  180  A    between atoms: _438  and  _439
REMARK  181  A    between atoms: _442  and  _444
REMARK  182  A    between atoms: _444  and  _445
REMARK  183  A    between atoms: _444  and  _447
REMARK  184  A    between atoms: _447  and  _448
REMARK  185  A    between atoms: _451  and  _453
REMARK  186  A    between atoms: _453  and  _454
REMARK  187  A    between atoms: _453  and  _456
REMARK  188  A    between atoms: _456  and  _457
REMARK  189  A    between atoms: _463  and  _465
REMARK  190  A    between atoms: _465  and  _466
REMARK  191  A    between atoms: _465  and  _468
REMARK  192  A    between atoms: _468  and  _469
REMARK  193  A    between atoms: _472  and  _474
REMARK  194  A    between atoms: _474  and  _475
REMARK  195  A    between atoms: _478  and  _480
REMARK  196  A    between atoms: _480  and  _481
REMARK  197  A    between atoms: _480  and  _483
REMARK  198  A    between atoms: _483  and  _484
REMARK  199  A    between atoms: _484  and  _485
REMARK  200  A    between atoms: _485  and  _486
REMARK  201  A    between atoms: _495  and  _497
REMARK  202  A    between atoms: _497  and  _498
REMARK  203  A    between atoms: _497  and  _500
REMARK  204  A    between atoms: _500  and  _501
REMARK  205  A    between atoms: _504  and  _506
REMARK  206  A    between atoms: _506  and  _507
REMARK  207  A    between atoms: _506  and  _509
REMARK  208  A    between atoms: _509  and  _510
REMARK  209  A    between atoms: _510  and  _511
REMARK  210  A    between atoms: _513  and  _515
REMARK  211  A    between atoms: _515  and  _516
REMARK  212  A    between atoms: _515  and  _518
REMARK  213  A    between atoms: _518  and  _519
REMARK  214  A    between atoms: _524  and  _525
REMARK  215  A    between atoms: _527  and  _529
REMARK  216  A    between atoms: _529  and  _530
REMARK  217  A    between atoms: _529  and  _532
REMARK  218  A    between atoms: _532  and  _533
REMARK  219  A    between atoms: _536  and  _538
REMARK  220  A    between atoms: _538  and  _539
REMARK  221  A    between atoms: _538  and  _541
REMARK  222  A    between atoms: _541  and  _542
REMARK  223  A    between atoms: _542  and  _543
REMARK  224  A    between atoms: _543  and  _544
REMARK  225  A    between atoms: _544  and  _545
REMARK  226  A    between atoms: _549  and  _551
REMARK  227  A    between atoms: _551  and  _552
REMARK  228  A    between atoms: _551  and  _554
REMARK  229  A    between atoms: _554  and  _555
REMARK  230  A    between atoms: _560  and  _561
REMARK  231  A    between atoms: _563  and  _565
REMARK  232  A    between atoms: _565  and  _566
REMARK  233  A    between atoms: _565  and  _568
REMARK  234  A    between atoms: _568  and  _569
REMARK  235  A    between atoms: _574  and  _575
REMARK                            x       y       z     vdW  Elec       q    Type
REMARK                         _______ _______ _______ _____ _____    ______ ____
ROOT
ATOM      1  CA  LYS A   7       8.427  10.927   4.277  0.00  0.00    +0.149 C 
ENDROOT
BRANCH   1   3
ATOM      2  C   MET A   6      10.517  10.735   5.519  0.00  0.00    +0.241 C 
ATOM      3  N   LYS A   7       9.202  10.916   5.508  0.00  0.00    -0.297 N 
ATOM      4  H   LYS A   7       8.708  11.055   6.412  0.00  0.00    +0.150 HD
ATOM      5  O   MET A   6      11.226  10.853   4.516  0.00  0.00    -0.273 OA
BRANCH   2   6
ATOM      6  CA  MET A   6      11.118  10.380   6.874  0.00  0.00    +0.149 C 
BRANCH   6   9
ATOM      7  C   TYR A   5      10.572   8.125   7.634  0.00  0.00    +0.241 C 
ATOM      8  O   TYR A   5       9.635   8.516   8.333  0.00  0.00    -0.273 OA
ATOM      9  N   MET A   6      11.342   8.941   6.921  0.00  0.00    -0.297 N 
ATOM     10  H   MET A   6      12.132   8.538   6.378  0.00  0.00    +0.150 HD
BRANCH   7  11
ATOM     11  CA  TYR A   5      10.918   6.643   7.559  0.00  0.00    +0.153 C 
BRANCH  11  14
ATOM     12  C   PRO A   4      11.910   6.392   9.759  0.00  0.00    +0.241 C 
ATOM     13  O   PRO A   4      12.877   7.100   9.457  0.00  0.00    -0.273 OA
ATOM     14  N   TYR A   5      10.940   6.088   8.905  0.00  0.00    -0.297 N 
ATOM     15  H   TYR A   5      10.182   5.441   9.203  0.00  0.00    +0.150 HD
BRANCH  12  21
ATOM     16  C   LEU A   3      13.805   4.474  10.966  0.00  0.00    +0.244 C 
ATOM     17  N   PRO A   4      13.103   5.399  11.635  0.00  0.00    -0.272 N 
ATOM     18  CD  PRO A   4      13.525   6.141  12.834  0.00  0.00    +0.094 C 
ATOM     19  CG  PRO A   4      12.229   6.678  13.361  0.00  0.00    +0.024 C 
ATOM     20  CB  PRO A   4      11.361   6.897  12.169  0.00  0.00    +0.031 C 
ATOM     21  CA  PRO A   4      11.781   5.820  11.165  0.00  0.00    +0.152 C 
ATOM     22  O   LEU A   3      13.340   3.873   9.999  0.00  0.00    -0.273 OA
BRANCH  16  23
ATOM     23  CA  LEU A   3      15.215   4.183  11.459  0.00  0.00    +0.149 C 
BRANCH  23  26
ATOM     24  C   VAL A   2      16.176   1.977  11.796  0.00  0.00    +0.241 C 
ATOM     25  O   VAL A   2      16.257   2.140  13.015  0.00  0.00    -0.273 OA
ATOM     26  N   LEU A   3      15.666   2.888  10.975  0.00  0.00    -0.297 N 
ATOM     27  H   LEU A   3      15.587   2.670   9.961  0.00  0.00    +0.150 HD
BRANCH  24  28
ATOM     28  CA  VAL A   2      16.670   0.699  11.138  0.00  0.00    +0.148 C 
BRANCH  28  30
ATOM     29  C   VAL A   1      19.029   0.560  10.614  0.00  0.00    +0.238 C 
ATOM     30  N   VAL A   2      18.055   0.432  11.507  0.00  0.00    -0.297 N 
ATOM     31  H   VAL A   2      18.282   0.139  12.479  0.00  0.00    +0.150 HD
ATOM     32  O   VAL A   1      18.832   0.972   9.468  0.00  0.00    -0.274 OA
BRANCH  29  33
ATOM     33  CA  VAL A   1      20.429   0.168  11.071  0.00  0.00    +0.145 C 
BRANCH  33  34
ATOM     34  CB  VAL A   1      21.304   1.439  11.134  0.00  0.00    +0.025 C 
ATOM     35  CG2 VAL A   1      20.748   2.402  12.168  0.00  0.00    +0.002 C 
ATOM     36  CG1 VAL A   1      22.745   1.064  11.470  0.00  0.00    +0.002 C 
ENDBRANCH  33  34
BRANCH  33  37
ATOM     37  N   VAL A   1      20.978  -0.809  10.140  0.00  0.00    -0.238 NA
ATOM     38  H   VAL A   1      21.396  -0.480   9.246  0.00  0.00    +0.142 HD
ENDBRANCH  33  37
ENDBRANCH  29  33
ENDBRANCH  28  30
BRANCH  28  39
ATOM     39  CB  VAL A   2      15.736  -0.468  11.541  0.00  0.00    +0.027 C 
ATOM     40  CG2 VAL A   2      16.307  -1.788  11.057  0.00  0.00    +0.002 C 
ATOM     41  CG1 VAL A   2      14.348  -0.245  10.950  0.00  0.00    +0.002 C 
ENDBRANCH  28  39
ENDBRANCH  24  28
ENDBRANCH  23  26
BRANCH  23  42
ATOM     42  CB  LEU A   3      16.188   5.259  10.985  0.00  0.00    +0.029 C 
BRANCH  42  43
ATOM     43  CG  LEU A   3      17.581   4.739  11.359  0.00  0.00    +0.002 C 
ATOM     44  CD2 LEU A   3      18.124   5.485  12.554  0.00  0.00    +0.000 C 
ATOM     45  CD1 LEU A   3      18.492   4.804  10.164  0.00  0.00    +0.000 C 
ENDBRANCH  42  43
ENDBRANCH  23  42
ENDBRANCH  16  23
ENDBRANCH  12  21
ENDBRANCH  11  14
BRANCH  11  46
ATOM     46  CB  TYR A   5       9.883   5.909   6.701  0.00  0.00    +0.055 C 
BRANCH  46  47
ATOM     47  CG  TYR A   5       9.751   6.446   5.293  0.00  0.00    -0.020 A 
ATOM     48  CD2 TYR A   5       8.518   6.865   4.798  0.00  0.00    -0.001 A 
ATOM     49  CE2 TYR A   5       8.391   7.347   3.511  0.00  0.00    +0.036 A 
ATOM     50  CZ  TYR A   5       9.506   7.416   2.698  0.00  0.00    +0.134 A 
ATOM     51  CE1 TYR A   5      10.740   7.006   3.166  0.00  0.00    +0.036 A 
ATOM     52  CD1 TYR A   5      10.855   6.527   4.455  0.00  0.00    -0.001 A 
BRANCH  50  53
ATOM     53  OH  TYR A   5       9.394   7.893   1.413  0.00  0.00    -0.506 OA
ATOM     54  HH  TYR A   5      10.282   7.873   0.976  0.00  0.00    +0.292 HD
ENDBRANCH  50  53
ENDBRANCH  46  47
ENDBRANCH  11  46
ENDBRANCH   7  11
ENDBRANCH   6   9
BRANCH   6  55
ATOM     55  CB  MET A   6      12.441  11.127   7.076  0.00  0.00    +0.041 C 
BRANCH  55  56
ATOM     56  CG  MET A   6      13.082  10.890   8.447  0.00  0.00    +0.060 C 
BRANCH  56  57
ATOM     57  SD  MET A   6      12.199  11.714   9.794  0.00  0.00    -0.139 S 
ATOM     58  CE  MET A   6      11.480  10.322  10.678  0.00  0.00    +0.069 C 
ENDBRANCH  56  57
ENDBRANCH  55  56
ENDBRANCH   6  55
ENDBRANCH   2   6
ENDBRANCH   1   3
BRANCH   1  59
ATOM     59  C   LYS A   7       8.778  12.088   3.351  0.00  0.00    +0.241 C 
ATOM     60  N   HIS A   8       9.217  13.205   3.919  0.00  0.00    -0.297 N 
ATOM     61  H   HIS A   8       9.366  13.237   4.948  0.00  0.00    +0.150 HD
ATOM     62  O   LYS A   7       8.651  11.974   2.132  0.00  0.00    -0.273 OA
BRANCH  60  63
ATOM     63  CA  HIS A   8       9.491  14.385   3.111  0.00  0.00    +0.155 C 
BRANCH  63  64
ATOM     64  C   HIS A   8      10.977  14.622   2.833  0.00  0.00    +0.241 C 
ATOM     65  N   GLY A   9      11.828  13.700   3.274  0.00  0.00    -0.295 N 
ATOM     66  H   GLY A   9      11.495  12.952   3.915  0.00  0.00    +0.150 HD
ATOM     67  O   HIS A   8      11.344  15.625   2.227  0.00  0.00    -0.273 OA
BRANCH  65  68
ATOM     68  CA  GLY A   9      13.221  13.735   2.863  0.00  0.00    +0.176 C 
BRANCH  68  69
ATOM     69  C   GLY A   9      14.042  14.789   3.581  0.00  0.00    +0.243 C 
ATOM     70  O   GLY A   9      13.609  15.335   4.598  0.00  0.00    -0.273 OA
ATOM     71  N   ASP A  10      15.227  15.083   3.052  0.00  0.00    -0.296 N 
ATOM     72  H   ASP A  10      15.514  14.632   2.160  0.00  0.00    +0.150 HD
BRANCH  71  73
ATOM     73  CA  ASP A  10      16.130  16.026   3.701  0.00  0.00    +0.160 C 
BRANCH  73  74
ATOM     74  C   ASP A  10      15.671  17.470   3.520  0.00  0.00    +0.241 C 
ATOM     75  N   LEU A  11      15.993  18.296   4.507  0.00  0.00    -0.297 N 
ATOM     76  H   LEU A  11      16.620  17.953   5.262  0.00  0.00    +0.150 HD
ATOM     77  O   ASP A  10      15.042  17.825   2.518  0.00  0.00    -0.273 OA
BRANCH  75  78
ATOM     78  CA  LEU A  11      15.502  19.663   4.572  0.00  0.00    +0.149 C 
BRANCH  78  79
ATOM     79  C   LEU A  11      15.957  20.511   3.386  0.00  0.00    +0.241 C 
ATOM     80  O   LEU A  11      15.206  21.356   2.905  0.00  0.00    -0.273 OA
ATOM     81  N   ARG A  12      17.179  20.297   2.905  0.00  0.00    -0.297 N 
ATOM     82  H   ARG A  12      17.762  19.522   3.282  0.00  0.00    +0.150 HD
BRANCH  81  83
ATOM     83  CA  ARG A  12      17.698  21.159   1.842  0.00  0.00    +0.149 C 
BRANCH  83  84
ATOM     84  C   ARG A  12      16.953  20.955   0.523  0.00  0.00    +0.241 C 
ATOM     85  N   ASN A  13      16.756  19.700   0.136  0.00  0.00    -0.298 N 
ATOM     86  H   ASN A  13      17.151  18.917   0.695  0.00  0.00    +0.150 HD
ATOM     87  O   ARG A  12      16.561  21.919  -0.136  0.00  0.00    -0.273 OA
BRANCH  85  88
ATOM     88  CA  ASN A  13      15.989  19.416  -1.069  0.00  0.00    +0.146 C 
BRANCH  88  89
ATOM     89  C   ASN A  13      14.548  19.883  -0.913  0.00  0.00    +0.227 C 
ATOM     90  O   ASN A  13      13.916  20.293  -1.885  0.00  0.00    -0.286 OA
ENDBRANCH  88  89
BRANCH  88  91
ATOM     91  CB  ASN A  13      16.025  17.918  -1.393  0.00  0.00    +0.112 C 
BRANCH  91  92
ATOM     92  CG  ASN A  13      17.252  17.529  -2.202  0.00  0.00    +0.222 C 
ATOM     93  ND2 ASN A  13      17.879  16.415  -1.838  0.00  0.00    -0.329 N 
ATOM     94 HD21 ASN A  13      17.521  15.854  -1.039  0.00  0.00    +0.145 HD
ATOM     95 HD22 ASN A  13      18.728  16.104  -2.352  0.00  0.00    +0.145 HD
ATOM     96  OD1 ASN A  13      17.635  18.229  -3.141  0.00  0.00    -0.275 OA
ENDBRANCH  91  92
ENDBRANCH  88  91
ENDBRANCH  85  88
ENDBRANCH  83  84
BRANCH  83  97
ATOM     97  CB  ARG A  12      19.196  20.928   1.623  0.00  0.00    +0.033 C 
BRANCH  97  98
ATOM     98  CG  ARG A  12      19.802  21.942   0.656  0.00  0.00    +0.045 C 
BRANCH  98  99
ATOM     99  CD  ARG A  12      21.197  21.570   0.182  0.00  0.00    +0.174 C 
BRANCH  99 100
ATOM    100  NE  ARG A  12      21.720  22.597  -0.717  0.00  0.00    -0.265 N 
ATOM    101  HE  ARG A  12      21.584  23.591  -0.443  0.00  0.00    +0.259 HD
ATOM    102  CZ  ARG A  12      22.357  22.355  -1.861  0.00  0.00    +0.342 C 
ATOM    103  NH2 ARG A  12      22.567  21.108  -2.264  0.00  0.00    -0.292 N 
ATOM    104 HH21 ARG A  12      22.233  20.311  -1.685  0.00  0.00    +0.255 HD
ATOM    105 HH22 ARG A  12      23.065  20.928  -3.159  0.00  0.00    +0.255 HD
ATOM    106  NH1 ARG A  12      22.774  23.369  -2.608  0.00  0.00    -0.292 N 
ATOM    107 HH11 ARG A  12      22.603  24.347  -2.299  0.00  0.00    +0.255 HD
ATOM    108 HH12 ARG A  12      23.272  23.186  -3.502  0.00  0.00    +0.255 HD
ENDBRANCH  99 100
ENDBRANCH  98  99
ENDBRANCH  97  98
ENDBRANCH  83  97
ENDBRANCH  81  83
ENDBRANCH  78  79
BRANCH  78 109
ATOM    109  CB  LEU A  11      15.963  20.306   5.883  0.00  0.00    +0.029 C 
BRANCH 109 110
ATOM    110  CG  LEU A  11      15.597  21.767   6.155  0.00  0.00    +0.002 C 
ATOM    111  CD2 LEU A  11      16.235  22.202   7.470  0.00  0.00    +0.000 C 
ATOM    112  CD1 LEU A  11      14.079  21.926   6.215  0.00  0.00    +0.000 C 
ENDBRANCH 109 110
ENDBRANCH  78 109
ENDBRANCH  75  78
ENDBRANCH  73  74
BRANCH  73 113
ATOM    113  CB  ASP A  10      17.562  15.857   3.175  0.00  0.00    +0.143 C 
BRANCH 113 114
ATOM    114  CG  ASP A  10      17.744  16.401   1.770  0.00  0.00    +0.367 C 
ATOM    115  OD2 ASP A  10      18.231  17.545   1.637  0.00  0.00    -0.246 OA
ATOM    116  OD1 ASP A  10      17.409  15.685   0.800  0.00  0.00    -0.246 OA
ENDBRANCH 113 114
ENDBRANCH  73 113
ENDBRANCH  71  73
ENDBRANCH  68  69
ENDBRANCH  65  68
ENDBRANCH  63  64
BRANCH  63 117
ATOM    117  CB  HIS A   8       8.869  15.623   3.762  0.00  0.00    +0.076 C 
BRANCH 117 118
ATOM    118  CG  HIS A   8       7.371  15.596   3.785  0.00  0.00    +0.082 A 
ATOM    119  ND1 HIS A   8       6.646  15.404   4.941  0.00  0.00    -0.227 NA
ATOM    120  CE1 HIS A   8       5.356  15.391   4.654  0.00  0.00    +0.199 A 
ATOM    121  NE2 HIS A   8       5.217  15.570   3.352  0.00  0.00    -0.221 NA
ATOM    122  CD2 HIS A   8       6.462  15.703   2.786  0.00  0.00    +0.115 A 
ENDBRANCH 117 118
ENDBRANCH  63 117
ENDBRANCH  60  63
ENDBRANCH   1  59
BRANCH   1 123
ATOM    123  CB  LYS A   7       6.936  10.967   4.623  0.00  0.00    +0.029 C 
BRANCH 123 124
ATOM    124  CG  LYS A   7       6.003  10.938   3.430  0.00  0.00    +0.000 C 
BRANCH 124 125
ATOM    125  CD  LYS A   7       4.550  10.869   3.885  0.00  0.00    -0.024 C 
BRANCH 125 126
ATOM    126  CE  LYS A   7       3.605  10.789   2.697  0.00  0.00    -0.086 C 
BRANCH 126 127
ATOM    127  NZ  LYS A   7       3.730  11.987   1.815  0.00  0.00    +0.380 N 
ATOM    128  HZ1 LYS A   7       3.502  12.843   2.360  0.00  0.00    -0.089 HD
ATOM    129  HZ2 LYS A   7       4.704  12.052   1.457  0.00  0.00    -0.089 HD
ATOM    130  HZ3 LYS A   7       3.071  11.898   1.016  0.00  0.00    -0.089 HD
ENDBRANCH 126 127
ENDBRANCH 125 126
ENDBRANCH 124 125
ENDBRANCH 123 124
ENDBRANCH   1 123
TORSDOF 52
REMARK  Name = ../refined-set-2016/3zze/3zze_pocket.pdb
REMARK  235 active torsions:
REMARK  status: ('A' for Active; 'I' for Inactive)
REMARK    1  A    between atoms: _1  and  _3
REMARK    2  A    between atoms: _3  and  _4
REMARK    3  A    between atoms: _3  and  _6
REMARK    4  A    between atoms: _9  and  _11
REMARK    5  A    between atoms: _11  and  _12
REMARK    6  A    between atoms: _11  and  _14
REMARK    7  A    between atoms: _14  and  _15
REMARK    8  A    between atoms: _18  and  _20
REMARK    9  A    between atoms: _20  and  _21
REMARK   10  A    between atoms: _23  and  _25
REMARK   11  A    between atoms: _25  and  _26
REMARK   12  A    between atoms: _25  and  _28
REMARK   13  A    between atoms: _28  and  _29
REMARK   14  A    between atoms: _29  and  _30
REMARK   15  A    between atoms: _30  and  _31
REMARK   16  A    between atoms: _40  and  _42
REMARK   17  A    between atoms: _42  and  _43
REMARK   18  A    between atoms: _45  and  _47
REMARK   19  A    between atoms: _47  and  _48
REMARK   20  A    between atoms: _50  and  _52
REMARK   21  A    between atoms: _52  and  _53
REMARK   22  A    between atoms: _52  and  _55
REMARK   23  A    between atoms: _57  and  _59
REMARK   24  A    between atoms: _59  and  _60
REMARK   25  A    between atoms: _59  and  _62
REMARK   26  A    between atoms: _65  and  _67
REMARK   27  A    between atoms: _67  and  _68
REMARK   28  A    between atoms: _67  and  _70
REMARK   29  A    between atoms: _70  and  _71
REMARK   30  A    between atoms: _76  and  _77
REMARK   31  A    between atoms: _79  and  _81
REMARK   32  A    between atoms: _81  and  _82
REMARK   33  A    between atoms: _81  and  _84
REMARK   34  A    between atoms: _84  and  _85
REMARK   35  A    between atoms: _90  and  _92
REMARK   36  A    between atoms: _92  and  _93
REMARK   37  A    between atoms: _95  and  _97
REMARK   38  A    between atoms: _97  and  _98
REMARK   39  A    between atoms: _97  and  _100
REMARK   40  A    between atoms: _100  and  _101
REMARK   41  A    between atoms: _106  and  _108
REMARK   42  A    between atoms: _108  and  _109
REMARK   43  A    between atoms: _108  and  _111
REMARK   44  A    between atoms: _113  and  _115
REMARK   45  A    between atoms: _115  and  _116
REMARK   46  A    between atoms: _119  and  _121
REMARK   47  A    between atoms: _121  and  _122
REMARK   48  A    between atoms: _121  and  _124
REMARK   49  A    between atoms: _127  and  _129
REMARK   50  A    between atoms: _129  and  _130
REMARK   51  A    between atoms: _129  and  _132
REMARK   52  A    between atoms: _132  and  _133
REMARK   53  A    between atoms: _133  and  _134
REMARK   54  A    between atoms: _134  and  _135
REMARK   55  A    between atoms: _135  and  _136
REMARK   56  A    between atoms: _140  and  _142
REMARK   57  A    between atoms: _142  and  _143
REMARK   58  A    between atoms: _142  and  _145
REMARK   59  A    between atoms: _145  and  _146
REMARK   60  A    between atoms: _148  and  _150
REMARK   61  A    between atoms: _150  and  _151
REMARK   62  A    between atoms: _150  and  _153
REMARK   63  A    between atoms: _153  and  _154
REMARK   64  A    between atoms: _154  and  _155
REMARK   65  A    between atoms: _157  and  _159
REMARK   66  A    between atoms: _159  and  _160
REMARK   67  A    between atoms: _159  and  _162
REMARK   68  A    between atoms: _162  and  _163
REMARK   69  A    between atoms: _166  and  _168
REMARK   70  A    between atoms: _168  and  _169
REMARK   71  A    between atoms: _168  and  _171
REMARK   72  A    between atoms: _171  and  _172
REMARK   73  A    between atoms: _174  and  _176
REMARK   74  A    between atoms: _176  and  _177
REMARK   75  A    between atoms: _176  and  _179
REMARK   76  A    between atoms: _182  and  _184
REMARK   77  A    between atoms: _184  and  _185
REMARK   78  A    between atoms: _184  and  _187
REMARK   79  A    between atoms: _190  and  _192
REMARK   80  A    between atoms: _192  and  _193
REMARK   81  A    between atoms: _192  and  _195
REMARK   82  A    between atoms: _195  and  _196
REMARK   83  A    between atoms: _200  and  _201
REMARK   84  A    between atoms: _206  and  _208
REMARK   85  A    between atoms: _208  and  _209
REMARK   86  A    between atoms: _208  and  _211
REMARK   87  A    between atoms: _211  and  _212
REMARK   88  A    between atoms: _217  and  _218
REMARK   89  A    between atoms: _220  and  _222
REMARK   90  A    between atoms: _222  and  _223
REMARK   91  A    between atoms: _222  and  _225
REMARK   92  A    between atoms: _225  and  _226
REMARK   93  A    between atoms: _226  and  _227
REMARK   94  A    between atoms: _229  and  _231
REMARK   95  A    between atoms: _231  and  _232
REMARK   96  A    between atoms: _231  and  _234
REMARK   97  A    between atoms: _234  and  _235
REMARK   98  A    between atoms: _235  and  _236
REMARK   99  A    between atoms: _236  and  _237
REMARK  100  A    between atoms: _237  and  _238
REMARK  101  A    between atoms: _242  and  _244
REMARK  102  A    between atoms: _244  and  _245
REMARK  103  A    between atoms: _244  and  _247
REMARK  104  A    between atoms: _247  and  _248
REMARK  105  A    between atoms: _253  and  _255
REMARK  106  A    between atoms: _255  and  _256
REMARK  107  A    between atoms: _258  and  _260
REMARK  108  A    between atoms: _260  and  _261
REMARK  109  A    between atoms: _260  and  _263
REMARK  110  A    between atoms: _263  and  _264
REMARK  111  A    between atoms: _267  and  _269
REMARK  112  A    between atoms: _269  and  _270
REMARK  113  A    between atoms: _269  and  _272
REMARK  114  A    between atoms: _272  and  _273
REMARK  115  A    between atoms: _276  and  _278
REMARK  116  A    between atoms: _278  and  _279
REMARK  117  A    between atoms: _278  and  _281
REMARK  118  A    between atoms: _281  and  _282
REMARK  119  A    between atoms: _282  and  _283
REMARK  120  A    between atoms: _283  and  _284
REMARK  121  A    between atoms: _293  and  _295
REMARK  122  A    between atoms: _295  and  _296
REMARK  123  A    between atoms: _295  and  _298
REMARK  124  A    between atoms: _298  and  _299
REMARK  125  A    between atoms: _304  and  _306
REMARK  126  A    between atoms: _306  and  _307
REMARK  127  A    between atoms: _306  and  _309
REMARK  128  A    between atoms: _309  and  _310
REMARK  129  A    between atoms: _310  and  _311
REMARK  130  A    between atoms: _311  and  _312
REMARK  131  A    between atoms: _321  and  _323
REMARK  132  A    between atoms: _323  and  _324
REMARK  133  A    between atoms: _323  and  _326
REMARK  134  A    between atoms: _326  and  _327
REMARK  135  A    between atoms: _332  and  _334
REMARK  136  A    between atoms: _334  and  _335
REMARK  137  A    between atoms: _334  and  _337
REMARK  138  A    between atoms: _337  and  _338
REMARK  139  A    between atoms: _341  and  _343
REMARK  140  A    between atoms: _343  and  _344
REMARK  141  A    between atoms: _347  and  _349
REMARK  142  A    between atoms: _349  and  _350
REMARK  143  A    between atoms: _353  and  _355
REMARK  144  A    between atoms: _355  and  _356
REMARK  145  A    between atoms: _355  and  _358
REMARK  146  A    between atoms: _358  and  _359
REMARK  147  A    between atoms: _359  and  _360
REMARK  148  A    between atoms: _360  and  _361
REMARK  149  A    between atoms: _370  and  _372
REMARK  150  A    between atoms: _372  and  _373
REMARK  151  A    between atoms: _372  and  _375
REMARK  152  A    between atoms: _375  and  _376
REMARK  153  A    between atoms: _381  and  _383
REMARK  154  A    between atoms: _383  and  _384
REMARK  155  A    between atoms: _383  and  _386
REMARK  156  A    between atoms: _388  and  _390
REMARK  157  A    between atoms: _390  and  _391
REMARK  158  A    between atoms: _390  and  _393
REMARK  159  A    between atoms: _393  and  _394
REMARK  160  A    between atoms: _394  and  _395
REMARK  161  A    between atoms: _397  and  _399
REMARK  162  A    between atoms: _399  and  _400
REMARK  163  A    between atoms: _399  and  _402
REMARK  164  A    between atoms: _402  and  _403
REMARK  165  A    between atoms: _406  and  _408
REMARK  166  A    between atoms: _408  and  _409
REMARK  167  A    between atoms: _408  and  _411
REMARK  168  A    between atoms: _411  and  _412
REMARK  169  A    between atoms: _415  and  _417
REMARK  170  A    between atoms: _417  and  _418
REMARK  171  A    between atoms: _417  and  _420
REMARK  172  A    between atoms: _420  and  _421
REMARK  173  A    between atoms: _421  and  _422
REMARK  174  A    between atoms: _422  and  _423
REMARK  175  A    between atoms: _423  and  _424
REMARK  176  A    between atoms: _428  and  _430
REMARK  177  A    between atoms: _430  and  _431
REMARK  178  A    between atoms: _430  and  _433
REMARK  179  A    between atoms: _436  and  _438
REMARK  180  A    between atoms: _438  and  _439
REMARK  181  A    between atoms: _442  and  _444
REMARK  182  A    between atoms: _444  and  _445
REMARK  183  A    between atoms: _444  and  _447
REMARK  184  A    between atoms: _447  and  _448
REMARK  185  A    between atoms: _451  and  _453
REMARK  186  A    between atoms: _453  and  _454
REMARK  187  A    between atoms: _453  and  _456
REMARK  188  A    between atoms: _456  and  _457
REMARK  189  A    between atoms: _463  and  _465
REMARK  190  A    between atoms: _465  and  _466
REMARK  191  A    between atoms: _465  and  _468
REMARK  192  A    between atoms: _468  and  _469
REMARK  193  A    between atoms: _472  and  _474
REMARK  194  A    between atoms: _474  and  _475
REMARK  195  A    between atoms: _478  and  _480
REMARK  196  A    between atoms: _480  and  _481
REMARK  197  A    between atoms: _480  and  _483
REMARK  198  A    between atoms: _483  and  _484
REMARK  199  A    between atoms: _484  and  _485
REMARK  200  A    between atoms: _485  and  _486
REMARK  201  A    between atoms: _495  and  _497
REMARK  202  A    between atoms: _497  and  _498
REMARK  203  A    between atoms: _497  and  _500
REMARK  204  A    between atoms: _500  and  _501
REMARK  205  A    between atoms: _504  and  _506
REMARK  206  A    between atoms: _506  and  _507
REMARK  207  A    between atoms: _506  and  _509
REMARK  208  A    between atoms: _509  and  _510
REMARK  209  A    between atoms: _510  and  _511
REMARK  210  A    between atoms: _513  and  _515
REMARK  211  A    between atoms: _515  and  _516
REMARK  212  A    between atoms: _515  and  _518
REMARK  213  A    between atoms: _518  and  _519
REMARK  214  A    between atoms: _524  and  _525
REMARK  215  A    between atoms: _527  and  _529
REMARK  216  A    between atoms: _529  and  _530
REMARK  217  A    between atoms: _529  and  _532
REMARK  218  A    between atoms: _532  and  _533
REMARK  219  A    between atoms: _536  and  _538
REMARK  220  A    between atoms: _538  and  _539
REMARK  221  A    between atoms: _538  and  _541
REMARK  222  A    between atoms: _541  and  _542
REMARK  223  A    between atoms: _542  and  _543
REMARK  224  A    between atoms: _543  and  _544
REMARK  225  A    between atoms: _544  and  _545
REMARK  226  A    between atoms: _549  and  _551
REMARK  227  A    between atoms: _551  and  _552
REMARK  228  A    between atoms: _551  and  _554
REMARK  229  A    between atoms: _554  and  _555
REMARK  230  A    between atoms: _560  and  _561
REMARK  231  A    between atoms: _563  and  _565
REMARK  232  A    between atoms: _565  and  _566
REMARK  233  A    between atoms: _565  and  _568
REMARK  234  A    between atoms: _568  and  _569
REMARK  235  A    between atoms: _574  and  _575
REMARK                            x       y       z     vdW  Elec       q    Type
REMARK                         _______ _______ _______ _____ _____    ______ ____
ROOT
ATOM      1  NE  ARG A   1      18.934  22.717  -4.366  0.00  0.00    -0.265 N 
ATOM      2  HE  ARG A   1      18.375  23.384  -4.936  0.00  0.00    +0.259 HD
ATOM      3  CZ  ARG A   1      19.861  21.994  -4.988  0.00  0.00    +0.342 C 
ATOM      4  NH2 ARG A   1      20.598  21.129  -4.306  0.00  0.00    -0.292 N 
ATOM      5 HH21 ARG A   1      20.452  21.015  -3.283  0.00  0.00    +0.255 HD
ATOM      6 HH22 ARG A   1      21.322  20.565  -4.794  0.00  0.00    +0.255 HD
ATOM      7  NH1 ARG A   1      20.057  22.141  -6.292  0.00  0.00    -0.292 N 
ATOM      8 HH11 ARG A   1      20.783  21.574  -6.776  0.00  0.00    +0.255 HD
ATOM      9 HH12 ARG A   1      19.485  22.823  -6.830  0.00  0.00    +0.255 HD
ENDROOT
BRANCH   1  10
ATOM     10  CD  ARG A   1      18.649  22.636  -2.936  0.00  0.00    +0.174 C 
BRANCH  10  11
ATOM     11  CG  ARG A   1      17.481  23.526  -2.541  0.00  0.00    +0.045 C 
BRANCH  11  12
ATOM     12  CB  ARG A   1      16.203  23.113  -3.263  0.00  0.00    +0.029 C 
BRANCH  12  13
ATOM     13  CA  ARG A   1      14.973  23.945  -2.880  0.00  0.00    +0.133 C 
BRANCH  13  14
ATOM     14  N   ARG A   1      14.564  23.651  -1.510  0.00  0.00    -0.239 NA
ATOM     15  H   ARG A   1      14.914  22.788  -1.047  0.00  0.00    +0.142 HD
ENDBRANCH  13  14
BRANCH  13  16
ATOM     16  C   ARG A   1      13.840  23.665  -3.865  0.00  0.00    +0.224 C 
ATOM     17  O   ARG A   1      13.793  24.245  -4.948  0.00  0.00    -0.287 OA
ENDBRANCH  13  16
ENDBRANCH  12  13
ENDBRANCH  11  12
ENDBRANCH  10  11
ENDBRANCH   1  10
TORSDOF 6
REMARK  Name = ../refined-set-2016/3zze/3zze_pocket.pdb
REMARK  235 active torsions:
REMARK  status: ('A' for Active; 'I' for Inactive)
REMARK    1  A    between atoms: _1  and  _3
REMARK    2  A    between atoms: _3  and  _4
REMARK    3  A    between atoms: _3  and  _6
REMARK    4  A    between atoms: _9  and  _11
REMARK    5  A    between atoms: _11  and  _12
REMARK    6  A    between atoms: _11  and  _14
REMARK    7  A    between atoms: _14  and  _15
REMARK    8  A    between atoms: _18  and  _20
REMARK    9  A    between atoms: _20  and  _21
REMARK   10  A    between atoms: _23  and  _25
REMARK   11  A    between atoms: _25  and  _26
REMARK   12  A    between atoms: _25  and  _28
REMARK   13  A    between atoms: _28  and  _29
REMARK   14  A    between atoms: _29  and  _30
REMARK   15  A    between atoms: _30  and  _31
REMARK   16  A    between atoms: _40  and  _42
REMARK   17  A    between atoms: _42  and  _43
REMARK   18  A    between atoms: _45  and  _47
REMARK   19  A    between atoms: _47  and  _48
REMARK   20  A    between atoms: _50  and  _52
REMARK   21  A    between atoms: _52  and  _53
REMARK   22  A    between atoms: _52  and  _55
REMARK   23  A    between atoms: _57  and  _59
REMARK   24  A    between atoms: _59  and  _60
REMARK   25  A    between atoms: _59  and  _62
REMARK   26  A    between atoms: _65  and  _67
REMARK   27  A    between atoms: _67  and  _68
REMARK   28  A    between atoms: _67  and  _70
REMARK   29  A    between atoms: _70  and  _71
REMARK   30  A    between atoms: _76  and  _77
REMARK   31  A    between atoms: _79  and  _81
REMARK   32  A    between atoms: _81  and  _82
REMARK   33  A    between atoms: _81  and  _84
REMARK   34  A    between atoms: _84  and  _85
REMARK   35  A    between atoms: _90  and  _92
REMARK   36  A    between atoms: _92  and  _93
REMARK   37  A    between atoms: _95  and  _97
REMARK   38  A    between atoms: _97  and  _98
REMARK   39  A    between atoms: _97  and  _100
REMARK   40  A    between atoms: _100  and  _101
REMARK   41  A    between atoms: _106  and  _108
REMARK   42  A    between atoms: _108  and  _109
REMARK   43  A    between atoms: _108  and  _111
REMARK   44  A    between atoms: _113  and  _115
REMARK   45  A    between atoms: _115  and  _116
REMARK   46  A    between atoms: _119  and  _121
REMARK   47  A    between atoms: _121  and  _122
REMARK   48  A    between atoms: _121  and  _124
REMARK   49  A    between atoms: _127  and  _129
REMARK   50  A    between atoms: _129  and  _130
REMARK   51  A    between atoms: _129  and  _132
REMARK   52  A    between atoms: _132  and  _133
REMARK   53  A    between atoms: _133  and  _134
REMARK   54  A    between atoms: _134  and  _135
REMARK   55  A    between atoms: _135  and  _136
REMARK   56  A    between atoms: _140  and  _142
REMARK   57  A    between atoms: _142  and  _143
REMARK   58  A    between atoms: _142  and  _145
REMARK   59  A    between atoms: _145  and  _146
REMARK   60  A    between atoms: _148  and  _150
REMARK   61  A    between atoms: _150  and  _151
REMARK   62  A    between atoms: _150  and  _153
REMARK   63  A    between atoms: _153  and  _154
REMARK   64  A    between atoms: _154  and  _155
REMARK   65  A    between atoms: _157  and  _159
REMARK   66  A    between atoms: _159  and  _160
REMARK   67  A    between atoms: _159  and  _162
REMARK   68  A    between atoms: _162  and  _163
REMARK   69  A    between atoms: _166  and  _168
REMARK   70  A    between atoms: _168  and  _169
REMARK   71  A    between atoms: _168  and  _171
REMARK   72  A    between atoms: _171  and  _172
REMARK   73  A    between atoms: _174  and  _176
REMARK   74  A    between atoms: _176  and  _177
REMARK   75  A    between atoms: _176  and  _179
REMARK   76  A    between atoms: _182  and  _184
REMARK   77  A    between atoms: _184  and  _185
REMARK   78  A    between atoms: _184  and  _187
REMARK   79  A    between atoms: _190  and  _192
REMARK   80  A    between atoms: _192  and  _193
REMARK   81  A    between atoms: _192  and  _195
REMARK   82  A    between atoms: _195  and  _196
REMARK   83  A    between atoms: _200  and  _201
REMARK   84  A    between atoms: _206  and  _208
REMARK   85  A    between atoms: _208  and  _209
REMARK   86  A    between atoms: _208  and  _211
REMARK   87  A    between atoms: _211  and  _212
REMARK   88  A    between atoms: _217  and  _218
REMARK   89  A    between atoms: _220  and  _222
REMARK   90  A    between atoms: _222  and  _223
REMARK   91  A    between atoms: _222  and  _225
REMARK   92  A    between atoms: _225  and  _226
REMARK   93  A    between atoms: _226  and  _227
REMARK   94  A    between atoms: _229  and  _231
REMARK   95  A    between atoms: _231  and  _232
REMARK   96  A    between atoms: _231  and  _234
REMARK   97  A    between atoms: _234  and  _235
REMARK   98  A    between atoms: _235  and  _236
REMARK   99  A    between atoms: _236  and  _237
REMARK  100  A    between atoms: _237  and  _238
REMARK  101  A    between atoms: _242  and  _244
REMARK  102  A    between atoms: _244  and  _245
REMARK  103  A    between atoms: _244  and  _247
REMARK  104  A    between atoms: _247  and  _248
REMARK  105  A    between atoms: _253  and  _255
REMARK  106  A    between atoms: _255  and  _256
REMARK  107  A    between atoms: _258  and  _260
REMARK  108  A    between atoms: _260  and  _261
REMARK  109  A    between atoms: _260  and  _263
REMARK  110  A    between atoms: _263  and  _264
REMARK  111  A    between atoms: _267  and  _269
REMARK  112  A    between atoms: _269  and  _270
REMARK  113  A    between atoms: _269  and  _272
REMARK  114  A    between atoms: _272  and  _273
REMARK  115  A    between atoms: _276  and  _278
REMARK  116  A    between atoms: _278  and  _279
REMARK  117  A    between atoms: _278  and  _281
REMARK  118  A    between atoms: _281  and  _282
REMARK  119  A    between atoms: _282  and  _283
REMARK  120  A    between atoms: _283  and  _284
REMARK  121  A    between atoms: _293  and  _295
REMARK  122  A    between atoms: _295  and  _296
REMARK  123  A    between atoms: _295  and  _298
REMARK  124  A    between atoms: _298  and  _299
REMARK  125  A    between atoms: _304  and  _306
REMARK  126  A    between atoms: _306  and  _307
REMARK  127  A    between atoms: _306  and  _309
REMARK  128  A    between atoms: _309  and  _310
REMARK  129  A    between atoms: _310  and  _311
REMARK  130  A    between atoms: _311  and  _312
REMARK  131  A    between atoms: _321  and  _323
REMARK  132  A    between atoms: _323  and  _324
REMARK  133  A    between atoms: _323  and  _326
REMARK  134  A    between atoms: _326  and  _327
REMARK  135  A    between atoms: _332  and  _334
REMARK  136  A    between atoms: _334  and  _335
REMARK  137  A    between atoms: _334  and  _337
REMARK  138  A    between atoms: _337  and  _338
REMARK  139  A    between atoms: _341  and  _343
REMARK  140  A    between atoms: _343  and  _344
REMARK  141  A    between atoms: _347  and  _349
REMARK  142  A    between atoms: _349  and  _350
REMARK  143  A    between atoms: _353  and  _355
REMARK  144  A    between atoms: _355  and  _356
REMARK  145  A    between atoms: _355  and  _358
REMARK  146  A    between atoms: _358  and  _359
REMARK  147  A    between atoms: _359  and  _360
REMARK  148  A    between atoms: _360  and  _361
REMARK  149  A    between atoms: _370  and  _372
REMARK  150  A    between atoms: _372  and  _373
REMARK  151  A    between atoms: _372  and  _375
REMARK  152  A    between atoms: _375  and  _376
REMARK  153  A    between atoms: _381  and  _383
REMARK  154  A    between atoms: _383  and  _384
REMARK  155  A    between atoms: _383  and  _386
REMARK  156  A    between atoms: _388  and  _390
REMARK  157  A    between atoms: _390  and  _391
REMARK  158  A    between atoms: _390  and  _393
REMARK  159  A    between atoms: _393  and  _394
REMARK  160  A    between atoms: _394  and  _395
REMARK  161  A    between atoms: _397  and  _399
REMARK  162  A    between atoms: _399  and  _400
REMARK  163  A    between atoms: _399  and  _402
REMARK  164  A    between atoms: _402  and  _403
REMARK  165  A    between atoms: _406  and  _408
REMARK  166  A    between atoms: _408  and  _409
REMARK  167  A    between atoms: _408  and  _411
REMARK  168  A    between atoms: _411  and  _412
REMARK  169  A    between atoms: _415  and  _417
REMARK  170  A    between atoms: _417  and  _418
REMARK  171  A    between atoms: _417  and  _420
REMARK  172  A    between atoms: _420  and  _421
REMARK  173  A    between atoms: _421  and  _422
REMARK  174  A    between atoms: _422  and  _423
REMARK  175  A    between atoms: _423  and  _424
REMARK  176  A    between atoms: _428  and  _430
REMARK  177  A    between atoms: _430  and  _431
REMARK  178  A    between atoms: _430  and  _433
REMARK  179  A    between atoms: _436  and  _438
REMARK  180  A    between atoms: _438  and  _439
REMARK  181  A    between atoms: _442  and  _444
REMARK  182  A    between atoms: _444  and  _445
REMARK  183  A    between atoms: _444  and  _447
REMARK  184  A    between atoms: _447  and  _448
REMARK  185  A    between atoms: _451  and  _453
REMARK  186  A    between atoms: _453  and  _454
REMARK  187  A    between atoms: _453  and  _456
REMARK  188  A    between atoms: _456  and  _457
REMARK  189  A    between atoms: _463  and  _465
REMARK  190  A    between atoms: _465  and  _466
REMARK  191  A    between atoms: _465  and  _468
REMARK  192  A    between atoms: _468  and  _469
REMARK  193  A    between atoms: _472  and  _474
REMARK  194  A    between atoms: _474  and  _475
REMARK  195  A    between atoms: _478  and  _480
REMARK  196  A    between atoms: _480  and  _481
REMARK  197  A    between atoms: _480  and  _483
REMARK  198  A    between atoms: _483  and  _484
REMARK  199  A    between atoms: _484  and  _485
REMARK  200  A    between atoms: _485  and  _486
REMARK  201  A    between atoms: _495  and  _497
REMARK  202  A    between atoms: _497  and  _498
REMARK  203  A    between atoms: _497  and  _500
REMARK  204  A    between atoms: _500  and  _501
REMARK  205  A    between atoms: _504  and  _506
REMARK  206  A    between atoms: _506  and  _507
REMARK  207  A    between atoms: _506  and  _509
REMARK  208  A    between atoms: _509  and  _510
REMARK  209  A    between atoms: _510  and  _511
REMARK  210  A    between atoms: _513  and  _515
REMARK  211  A    between atoms: _515  and  _516
REMARK  212  A    between atoms: _515  and  _518
REMARK  213  A    between atoms: _518  and  _519
REMARK  214  A    between atoms: _524  and  _525
REMARK  215  A    between atoms: _527  and  _529
REMARK  216  A    between atoms: _529  and  _530
REMARK  217  A    between atoms: _529  and  _532
REMARK  218  A    between atoms: _532  and  _533
REMARK  219  A    between atoms: _536  and  _538
REMARK  220  A    between atoms: _538  and  _539
REMARK  221  A    between atoms: _538  and  _541
REMARK  222  A    between atoms: _541  and  _542
REMARK  223  A    between atoms: _542  and  _543
REMARK  224  A    between atoms: _543  and  _544
REMARK  225  A    between atoms: _544  and  _545
REMARK  226  A    between atoms: _549  and  _551
REMARK  227  A    between atoms: _551  and  _552
REMARK  228  A    between atoms: _551  and  _554
REMARK  229  A    between atoms: _554  and  _555
REMARK  230  A    between atoms: _560  and  _561
REMARK  231  A    between atoms: _563  and  _565
REMARK  232  A    between atoms: _565  and  _566
REMARK  233  A    between atoms: _565  and  _568
REMARK  234  A    between atoms: _568  and  _569
REMARK  235  A    between atoms: _574  and  _575
REMARK                            x       y       z     vdW  Elec       q    Type
REMARK                         _______ _______ _______ _____ _____    ______ ____
ROOT
ATOM      1  CB  HIS A   1      25.871  17.074  15.388  0.00  0.00    +0.072 C 
ENDROOT
BRANCH   1   2
ATOM      2  CG  HIS A   1      25.287  16.489  14.141  0.00  0.00    +0.082 A 
ATOM      3  ND1 HIS A   1      24.025  15.935  14.098  0.00  0.00    -0.227 NA
ATOM      4  CE1 HIS A   1      23.778  15.503  12.873  0.00  0.00    +0.199 A 
ATOM      5  NE2 HIS A   1      24.834  15.756  12.122  0.00  0.00    -0.221 NA
ATOM      6  CD2 HIS A   1      25.792  16.373  12.891  0.00  0.00    +0.115 A 
ENDBRANCH   1   2
BRANCH   1   7
ATOM      7  CA  HIS A   1      27.060  16.283  15.941  0.00  0.00    +0.139 C 
BRANCH   7   8
ATOM      8  N   HIS A   1      27.505  16.864  17.201  0.00  0.00    -0.239 NA
ATOM      9  H   HIS A   1      27.225  17.836  17.444  0.00  0.00    +0.142 HD
ENDBRANCH   7   8
BRANCH   7  10
ATOM     10  C   HIS A   1      28.177  16.227  14.902  0.00  0.00    +0.224 C 
ATOM     11  O   HIS A   1      28.388  15.189  14.275  0.00  0.00    -0.287 OA
ENDBRANCH   7  10
ENDBRANCH   1   7
TORSDOF 4
REMARK  Name = ../refined-set-2016/3zze/3zze_pocket.pdb
REMARK  235 active torsions:
REMARK  status: ('A' for Active; 'I' for Inactive)
REMARK    1  A    between atoms: _1  and  _3
REMARK    2  A    between atoms: _3  and  _4
REMARK    3  A    between atoms: _3  and  _6
REMARK    4  A    between atoms: _9  and  _11
REMARK    5  A    between atoms: _11  and  _12
REMARK    6  A    between atoms: _11  and  _14
REMARK    7  A    between atoms: _14  and  _15
REMARK    8  A    between atoms: _18  and  _20
REMARK    9  A    between atoms: _20  and  _21
REMARK   10  A    between atoms: _23  and  _25
REMARK   11  A    between atoms: _25  and  _26
REMARK   12  A    between atoms: _25  and  _28
REMARK   13  A    between atoms: _28  and  _29
REMARK   14  A    between atoms: _29  and  _30
REMARK   15  A    between atoms: _30  and  _31
REMARK   16  A    between atoms: _40  and  _42
REMARK   17  A    between atoms: _42  and  _43
REMARK   18  A    between atoms: _45  and  _47
REMARK   19  A    between atoms: _47  and  _48
REMARK   20  A    between atoms: _50  and  _52
REMARK   21  A    between atoms: _52  and  _53
REMARK   22  A    between atoms: _52  and  _55
REMARK   23  A    between atoms: _57  and  _59
REMARK   24  A    between atoms: _59  and  _60
REMARK   25  A    between atoms: _59  and  _62
REMARK   26  A    between atoms: _65  and  _67
REMARK   27  A    between atoms: _67  and  _68
REMARK   28  A    between atoms: _67  and  _70
REMARK   29  A    between atoms: _70  and  _71
REMARK   30  A    between atoms: _76  and  _77
REMARK   31  A    between atoms: _79  and  _81
REMARK   32  A    between atoms: _81  and  _82
REMARK   33  A    between atoms: _81  and  _84
REMARK   34  A    between atoms: _84  and  _85
REMARK   35  A    between atoms: _90  and  _92
REMARK   36  A    between atoms: _92  and  _93
REMARK   37  A    between atoms: _95  and  _97
REMARK   38  A    between atoms: _97  and  _98
REMARK   39  A    between atoms: _97  and  _100
REMARK   40  A    between atoms: _100  and  _101
REMARK   41  A    between atoms: _106  and  _108
REMARK   42  A    between atoms: _108  and  _109
REMARK   43  A    between atoms: _108  and  _111
REMARK   44  A    between atoms: _113  and  _115
REMARK   45  A    between atoms: _115  and  _116
REMARK   46  A    between atoms: _119  and  _121
REMARK   47  A    between atoms: _121  and  _122
REMARK   48  A    between atoms: _121  and  _124
REMARK   49  A    between atoms: _127  and  _129
REMARK   50  A    between atoms: _129  and  _130
REMARK   51  A    between atoms: _129  and  _132
REMARK   52  A    between atoms: _132  and  _133
REMARK   53  A    between atoms: _133  and  _134
REMARK   54  A    between atoms: _134  and  _135
REMARK   55  A    between atoms: _135  and  _136
REMARK   56  A    between atoms: _140  and  _142
REMARK   57  A    between atoms: _142  and  _143
REMARK   58  A    between atoms: _142  and  _145
REMARK   59  A    between atoms: _145  and  _146
REMARK   60  A    between atoms: _148  and  _150
REMARK   61  A    between atoms: _150  and  _151
REMARK   62  A    between atoms: _150  and  _153
REMARK   63  A    between atoms: _153  and  _154
REMARK   64  A    between atoms: _154  and  _155
REMARK   65  A    between atoms: _157  and  _159
REMARK   66  A    between atoms: _159  and  _160
REMARK   67  A    between atoms: _159  and  _162
REMARK   68  A    between atoms: _162  and  _163
REMARK   69  A    between atoms: _166  and  _168
REMARK   70  A    between atoms: _168  and  _169
REMARK   71  A    between atoms: _168  and  _171
REMARK   72  A    between atoms: _171  and  _172
REMARK   73  A    between atoms: _174  and  _176
REMARK   74  A    between atoms: _176  and  _177
REMARK   75  A    between atoms: _176  and  _179
REMARK   76  A    between atoms: _182  and  _184
REMARK   77  A    between atoms: _184  and  _185
REMARK   78  A    between atoms: _184  and  _187
REMARK   79  A    between atoms: _190  and  _192
REMARK   80  A    between atoms: _192  and  _193
REMARK   81  A    between atoms: _192  and  _195
REMARK   82  A    between atoms: _195  and  _196
REMARK   83  A    between atoms: _200  and  _201
REMARK   84  A    between atoms: _206  and  _208
REMARK   85  A    between atoms: _208  and  _209
REMARK   86  A    between atoms: _208  and  _211
REMARK   87  A    between atoms: _211  and  _212
REMARK   88  A    between atoms: _217  and  _218
REMARK   89  A    between atoms: _220  and  _222
REMARK   90  A    between atoms: _222  and  _223
REMARK   91  A    between atoms: _222  and  _225
REMARK   92  A    between atoms: _225  and  _226
REMARK   93  A    between atoms: _226  and  _227
REMARK   94  A    between atoms: _229  and  _231
REMARK   95  A    between atoms: _231  and  _232
REMARK   96  A    between atoms: _231  and  _234
REMARK   97  A    between atoms: _234  and  _235
REMARK   98  A    between atoms: _235  and  _236
REMARK   99  A    between atoms: _236  and  _237
REMARK  100  A    between atoms: _237  and  _238
REMARK  101  A    between atoms: _242  and  _244
REMARK  102  A    between atoms: _244  and  _245
REMARK  103  A    between atoms: _244  and  _247
REMARK  104  A    between atoms: _247  and  _248
REMARK  105  A    between atoms: _253  and  _255
REMARK  106  A    between atoms: _255  and  _256
REMARK  107  A    between atoms: _258  and  _260
REMARK  108  A    between atoms: _260  and  _261
REMARK  109  A    between atoms: _260  and  _263
REMARK  110  A    between atoms: _263  and  _264
REMARK  111  A    between atoms: _267  and  _269
REMARK  112  A    between atoms: _269  and  _270
REMARK  113  A    between atoms: _269  and  _272
REMARK  114  A    between atoms: _272  and  _273
REMARK  115  A    between atoms: _276  and  _278
REMARK  116  A    between atoms: _278  and  _279
REMARK  117  A    between atoms: _278  and  _281
REMARK  118  A    between atoms: _281  and  _282
REMARK  119  A    between atoms: _282  and  _283
REMARK  120  A    between atoms: _283  and  _284
REMARK  121  A    between atoms: _293  and  _295
REMARK  122  A    between atoms: _295  and  _296
REMARK  123  A    between atoms: _295  and  _298
REMARK  124  A    between atoms: _298  and  _299
REMARK  125  A    between atoms: _304  and  _306
REMARK  126  A    between atoms: _306  and  _307
REMARK  127  A    between atoms: _306  and  _309
REMARK  128  A    between atoms: _309  and  _310
REMARK  129  A    between atoms: _310  and  _311
REMARK  130  A    between atoms: _311  and  _312
REMARK  131  A    between atoms: _321  and  _323
REMARK  132  A    between atoms: _323  and  _324
REMARK  133  A    between atoms: _323  and  _326
REMARK  134  A    between atoms: _326  and  _327
REMARK  135  A    between atoms: _332  and  _334
REMARK  136  A    between atoms: _334  and  _335
REMARK  137  A    between atoms: _334  and  _337
REMARK  138  A    between atoms: _337  and  _338
REMARK  139  A    between atoms: _341  and  _343
REMARK  140  A    between atoms: _343  and  _344
REMARK  141  A    between atoms: _347  and  _349
REMARK  142  A    between atoms: _349  and  _350
REMARK  143  A    between atoms: _353  and  _355
REMARK  144  A    between atoms: _355  and  _356
REMARK  145  A    between atoms: _355  and  _358
REMARK  146  A    between atoms: _358  and  _359
REMARK  147  A    between atoms: _359  and  _360
REMARK  148  A    between atoms: _360  and  _361
REMARK  149  A    between atoms: _370  and  _372
REMARK  150  A    between atoms: _372  and  _373
REMARK  151  A    between atoms: _372  and  _375
REMARK  152  A    between atoms: _375  and  _376
REMARK  153  A    between atoms: _381  and  _383
REMARK  154  A    between atoms: _383  and  _384
REMARK  155  A    between atoms: _383  and  _386
REMARK  156  A    between atoms: _388  and  _390
REMARK  157  A    between atoms: _390  and  _391
REMARK  158  A    between atoms: _390  and  _393
REMARK  159  A    between atoms: _393  and  _394
REMARK  160  A    between atoms: _394  and  _395
REMARK  161  A    between atoms: _397  and  _399
REMARK  162  A    between atoms: _399  and  _400
REMARK  163  A    between atoms: _399  and  _402
REMARK  164  A    between atoms: _402  and  _403
REMARK  165  A    between atoms: _406  and  _408
REMARK  166  A    between atoms: _408  and  _409
REMARK  167  A    between atoms: _408  and  _411
REMARK  168  A    between atoms: _411  and  _412
REMARK  169  A    between atoms: _415  and  _417
REMARK  170  A    between atoms: _417  and  _418
REMARK  171  A    between atoms: _417  and  _420
REMARK  172  A    between atoms: _420  and  _421
REMARK  173  A    between atoms: _421  and  _422
REMARK  174  A    between atoms: _422  and  _423
REMARK  175  A    between atoms: _423  and  _424
REMARK  176  A    between atoms: _428  and  _430
REMARK  177  A    between atoms: _430  and  _431
REMARK  178  A    between atoms: _430  and  _433
REMARK  179  A    between atoms: _436  and  _438
REMARK  180  A    between atoms: _438  and  _439
REMARK  181  A    between atoms: _442  and  _444
REMARK  182  A    between atoms: _444  and  _445
REMARK  183  A    between atoms: _444  and  _447
REMARK  184  A    between atoms: _447  and  _448
REMARK  185  A    between atoms: _451  and  _453
REMARK  186  A    between atoms: _453  and  _454
REMARK  187  A    between atoms: _453  and  _456
REMARK  188  A    between atoms: _456  and  _457
REMARK  189  A    between atoms: _463  and  _465
REMARK  190  A    between atoms: _465  and  _466
REMARK  191  A    between atoms: _465  and  _468
REMARK  192  A    between atoms: _468  and  _469
REMARK  193  A    between atoms: _472  and  _474
REMARK  194  A    between atoms: _474  and  _475
REMARK  195  A    between atoms: _478  and  _480
REMARK  196  A    between atoms: _480  and  _481
REMARK  197  A    between atoms: _480  and  _483
REMARK  198  A    between atoms: _483  and  _484
REMARK  199  A    between atoms: _484  and  _485
REMARK  200  A    between atoms: _485  and  _486
REMARK  201  A    between atoms: _495  and  _497
REMARK  202  A    between atoms: _497  and  _498
REMARK  203  A    between atoms: _497  and  _500
REMARK  204  A    between atoms: _500  and  _501
REMARK  205  A    between atoms: _504  and  _506
REMARK  206  A    between atoms: _506  and  _507
REMARK  207  A    between atoms: _506  and  _509
REMARK  208  A    between atoms: _509  and  _510
REMARK  209  A    between atoms: _510  and  _511
REMARK  210  A    between atoms: _513  and  _515
REMARK  211  A    between atoms: _515  and  _516
REMARK  212  A    between atoms: _515  and  _518
REMARK  213  A    between atoms: _518  and  _519
REMARK  214  A    between atoms: _524  and  _525
REMARK  215  A    between atoms: _527  and  _529
REMARK  216  A    between atoms: _529  and  _530
REMARK  217  A    between atoms: _529  and  _532
REMARK  218  A    between atoms: _532  and  _533
REMARK  219  A    between atoms: _536  and  _538
REMARK  220  A    between atoms: _538  and  _539
REMARK  221  A    between atoms: _538  and  _541
REMARK  222  A    between atoms: _541  and  _542
REMARK  223  A    between atoms: _542  and  _543
REMARK  224  A    between atoms: _543  and  _544
REMARK  225  A    between atoms: _544  and  _545
REMARK  226  A    between atoms: _549  and  _551
REMARK  227  A    between atoms: _551  and  _552
REMARK  228  A    between atoms: _551  and  _554
REMARK  229  A    between atoms: _554  and  _555
REMARK  230  A    between atoms: _560  and  _561
REMARK  231  A    between atoms: _563  and  _565
REMARK  232  A    between atoms: _565  and  _566
REMARK  233  A    between atoms: _565  and  _568
REMARK  234  A    between atoms: _568  and  _569
REMARK  235  A    between atoms: _574  and  _575
REMARK                            x       y       z     vdW  Elec       q    Type
REMARK                         _______ _______ _______ _____ _____    ______ ____
ROOT
ATOM      1  CA  ASP A   1      28.109  17.537  10.550  0.00  0.00    +0.144 C 
ENDROOT
BRANCH   1   2
ATOM      2  N   ASP A   1      28.470  17.382  11.960  0.00  0.00    -0.239 NA
ATOM      3  H   ASP A   1      27.746  17.107  12.654  0.00  0.00    +0.142 HD
ENDBRANCH   1   2
BRANCH   1   4
ATOM      4  C   ASP A   1      26.703  18.093  10.371  0.00  0.00    +0.225 C 
ATOM      5  O   ASP A   1      25.932  17.604   9.544  0.00  0.00    -0.287 OA
ENDBRANCH   1   4
BRANCH   1   6
ATOM      6  CB  ASP A   1      28.222  16.197   9.813  0.00  0.00    +0.139 C 
BRANCH   6   7
ATOM      7  CG  ASP A   1      28.212  16.360   8.295  0.00  0.00    +0.367 C 
ATOM      8  OD2 ASP A   1      28.258  17.512   7.810  0.00  0.00    -0.246 OA
ATOM      9  OD1 ASP A   1      28.155  15.336   7.585  0.00  0.00    -0.246 OA
ENDBRANCH   6   7
ENDBRANCH   1   6
TORSDOF 4
REMARK  Name = ../refined-set-2016/3zze/3zze_pocket.pdb
REMARK  235 active torsions:
REMARK  status: ('A' for Active; 'I' for Inactive)
REMARK    1  A    between atoms: _1  and  _3
REMARK    2  A    between atoms: _3  and  _4
REMARK    3  A    between atoms: _3  and  _6
REMARK    4  A    between atoms: _9  and  _11
REMARK    5  A    between atoms: _11  and  _12
REMARK    6  A    between atoms: _11  and  _14
REMARK    7  A    between atoms: _14  and  _15
REMARK    8  A    between atoms: _18  and  _20
REMARK    9  A    between atoms: _20  and  _21
REMARK   10  A    between atoms: _23  and  _25
REMARK   11  A    between atoms: _25  and  _26
REMARK   12  A    between atoms: _25  and  _28
REMARK   13  A    between atoms: _28  and  _29
REMARK   14  A    between atoms: _29  and  _30
REMARK   15  A    between atoms: _30  and  _31
REMARK   16  A    between atoms: _40  and  _42
REMARK   17  A    between atoms: _42  and  _43
REMARK   18  A    between atoms: _45  and  _47
REMARK   19  A    between atoms: _47  and  _48
REMARK   20  A    between atoms: _50  and  _52
REMARK   21  A    between atoms: _52  and  _53
REMARK   22  A    between atoms: _52  and  _55
REMARK   23  A    between atoms: _57  and  _59
REMARK   24  A    between atoms: _59  and  _60
REMARK   25  A    between atoms: _59  and  _62
REMARK   26  A    between atoms: _65  and  _67
REMARK   27  A    between atoms: _67  and  _68
REMARK   28  A    between atoms: _67  and  _70
REMARK   29  A    between atoms: _70  and  _71
REMARK   30  A    between atoms: _76  and  _77
REMARK   31  A    between atoms: _79  and  _81
REMARK   32  A    between atoms: _81  and  _82
REMARK   33  A    between atoms: _81  and  _84
REMARK   34  A    between atoms: _84  and  _85
REMARK   35  A    between atoms: _90  and  _92
REMARK   36  A    between atoms: _92  and  _93
REMARK   37  A    between atoms: _95  and  _97
REMARK   38  A    between atoms: _97  and  _98
REMARK   39  A    between atoms: _97  and  _100
REMARK   40  A    between atoms: _100  and  _101
REMARK   41  A    between atoms: _106  and  _108
REMARK   42  A    between atoms: _108  and  _109
REMARK   43  A    between atoms: _108  and  _111
REMARK   44  A    between atoms: _113  and  _115
REMARK   45  A    between atoms: _115  and  _116
REMARK   46  A    between atoms: _119  and  _121
REMARK   47  A    between atoms: _121  and  _122
REMARK   48  A    between atoms: _121  and  _124
REMARK   49  A    between atoms: _127  and  _129
REMARK   50  A    between atoms: _129  and  _130
REMARK   51  A    between atoms: _129  and  _132
REMARK   52  A    between atoms: _132  and  _133
REMARK   53  A    between atoms: _133  and  _134
REMARK   54  A    between atoms: _134  and  _135
REMARK   55  A    between atoms: _135  and  _136
REMARK   56  A    between atoms: _140  and  _142
REMARK   57  A    between atoms: _142  and  _143
REMARK   58  A    between atoms: _142  and  _145
REMARK   59  A    between atoms: _145  and  _146
REMARK   60  A    between atoms: _148  and  _150
REMARK   61  A    between atoms: _150  and  _151
REMARK   62  A    between atoms: _150  and  _153
REMARK   63  A    between atoms: _153  and  _154
REMARK   64  A    between atoms: _154  and  _155
REMARK   65  A    between atoms: _157  and  _159
REMARK   66  A    between atoms: _159  and  _160
REMARK   67  A    between atoms: _159  and  _162
REMARK   68  A    between atoms: _162  and  _163
REMARK   69  A    between atoms: _166  and  _168
REMARK   70  A    between atoms: _168  and  _169
REMARK   71  A    between atoms: _168  and  _171
REMARK   72  A    between atoms: _171  and  _172
REMARK   73  A    between atoms: _174  and  _176
REMARK   74  A    between atoms: _176  and  _177
REMARK   75  A    between atoms: _176  and  _179
REMARK   76  A    between atoms: _182  and  _184
REMARK   77  A    between atoms: _184  and  _185
REMARK   78  A    between atoms: _184  and  _187
REMARK   79  A    between atoms: _190  and  _192
REMARK   80  A    between atoms: _192  and  _193
REMARK   81  A    between atoms: _192  and  _195
REMARK   82  A    between atoms: _195  and  _196
REMARK   83  A    between atoms: _200  and  _201
REMARK   84  A    between atoms: _206  and  _208
REMARK   85  A    between atoms: _208  and  _209
REMARK   86  A    between atoms: _208  and  _211
REMARK   87  A    between atoms: _211  and  _212
REMARK   88  A    between atoms: _217  and  _218
REMARK   89  A    between atoms: _220  and  _222
REMARK   90  A    between atoms: _222  and  _223
REMARK   91  A    between atoms: _222  and  _225
REMARK   92  A    between atoms: _225  and  _226
REMARK   93  A    between atoms: _226  and  _227
REMARK   94  A    between atoms: _229  and  _231
REMARK   95  A    between atoms: _231  and  _232
REMARK   96  A    between atoms: _231  and  _234
REMARK   97  A    between atoms: _234  and  _235
REMARK   98  A    between atoms: _235  and  _236
REMARK   99  A    between atoms: _236  and  _237
REMARK  100  A    between atoms: _237  and  _238
REMARK  101  A    between atoms: _242  and  _244
REMARK  102  A    between atoms: _244  and  _245
REMARK  103  A    between atoms: _244  and  _247
REMARK  104  A    between atoms: _247  and  _248
REMARK  105  A    between atoms: _253  and  _255
REMARK  106  A    between atoms: _255  and  _256
REMARK  107  A    between atoms: _258  and  _260
REMARK  108  A    between atoms: _260  and  _261
REMARK  109  A    between atoms: _260  and  _263
REMARK  110  A    between atoms: _263  and  _264
REMARK  111  A    between atoms: _267  and  _269
REMARK  112  A    between atoms: _269  and  _270
REMARK  113  A    between atoms: _269  and  _272
REMARK  114  A    between atoms: _272  and  _273
REMARK  115  A    between atoms: _276  and  _278
REMARK  116  A    between atoms: _278  and  _279
REMARK  117  A    between atoms: _278  and  _281
REMARK  118  A    between atoms: _281  and  _282
REMARK  119  A    between atoms: _282  and  _283
REMARK  120  A    between atoms: _283  and  _284
REMARK  121  A    between atoms: _293  and  _295
REMARK  122  A    between atoms: _295  and  _296
REMARK  123  A    between atoms: _295  and  _298
REMARK  124  A    between atoms: _298  and  _299
REMARK  125  A    between atoms: _304  and  _306
REMARK  126  A    between atoms: _306  and  _307
REMARK  127  A    between atoms: _306  and  _309
REMARK  128  A    between atoms: _309  and  _310
REMARK  129  A    between atoms: _310  and  _311
REMARK  130  A    between atoms: _311  and  _312
REMARK  131  A    between atoms: _321  and  _323
REMARK  132  A    between atoms: _323  and  _324
REMARK  133  A    between atoms: _323  and  _326
REMARK  134  A    between atoms: _326  and  _327
REMARK  135  A    between atoms: _332  and  _334
REMARK  136  A    between atoms: _334  and  _335
REMARK  137  A    between atoms: _334  and  _337
REMARK  138  A    between atoms: _337  and  _338
REMARK  139  A    between atoms: _341  and  _343
REMARK  140  A    between atoms: _343  and  _344
REMARK  141  A    between atoms: _347  and  _349
REMARK  142  A    between atoms: _349  and  _350
REMARK  143  A    between atoms: _353  and  _355
REMARK  144  A    between atoms: _355  and  _356
REMARK  145  A    between atoms: _355  and  _358
REMARK  146  A    between atoms: _358  and  _359
REMARK  147  A    between atoms: _359  and  _360
REMARK  148  A    between atoms: _360  and  _361
REMARK  149  A    between atoms: _370  and  _372
REMARK  150  A    between atoms: _372  and  _373
REMARK  151  A    between atoms: _372  and  _375
REMARK  152  A    between atoms: _375  and  _376
REMARK  153  A    between atoms: _381  and  _383
REMARK  154  A    between atoms: _383  and  _384
REMARK  155  A    between atoms: _383  and  _386
REMARK  156  A    between atoms: _388  and  _390
REMARK  157  A    between atoms: _390  and  _391
REMARK  158  A    between atoms: _390  and  _393
REMARK  159  A    between atoms: _393  and  _394
REMARK  160  A    between atoms: _394  and  _395
REMARK  161  A    between atoms: _397  and  _399
REMARK  162  A    between atoms: _399  and  _400
REMARK  163  A    between atoms: _399  and  _402
REMARK  164  A    between atoms: _402  and  _403
REMARK  165  A    between atoms: _406  and  _408
REMARK  166  A    between atoms: _408  and  _409
REMARK  167  A    between atoms: _408  and  _411
REMARK  168  A    between atoms: _411  and  _412
REMARK  169  A    between atoms: _415  and  _417
REMARK  170  A    between atoms: _417  and  _418
REMARK  171  A    between atoms: _417  and  _420
REMARK  172  A    between atoms: _420  and  _421
REMARK  173  A    between atoms: _421  and  _422
REMARK  174  A    between atoms: _422  and  _423
REMARK  175  A    between atoms: _423  and  _424
REMARK  176  A    between atoms: _428  and  _430
REMARK  177  A    between atoms: _430  and  _431
REMARK  178  A    between atoms: _430  and  _433
REMARK  179  A    between atoms: _436  and  _438
REMARK  180  A    between atoms: _438  and  _439
REMARK  181  A    between atoms: _442  and  _444
REMARK  182  A    between atoms: _444  and  _445
REMARK  183  A    between atoms: _444  and  _447
REMARK  184  A    between atoms: _447  and  _448
REMARK  185  A    between atoms: _451  and  _453
REMARK  186  A    between atoms: _453  and  _454
REMARK  187  A    between atoms: _453  and  _456
REMARK  188  A    between atoms: _456  and  _457
REMARK  189  A    between atoms: _463  and  _465
REMARK  190  A    between atoms: _465  and  _466
REMARK  191  A    between atoms: _465  and  _468
REMARK  192  A    between atoms: _468  and  _469
REMARK  193  A    between atoms: _472  and  _474
REMARK  194  A    between atoms: _474  and  _475
REMARK  195  A    between atoms: _478  and  _480
REMARK  196  A    between atoms: _480  and  _481
REMARK  197  A    between atoms: _480  and  _483
REMARK  198  A    between atoms: _483  and  _484
REMARK  199  A    between atoms: _484  and  _485
REMARK  200  A    between atoms: _485  and  _486
REMARK  201  A    between atoms: _495  and  _497
REMARK  202  A    between atoms: _497  and  _498
REMARK  203  A    between atoms: _497  and  _500
REMARK  204  A    between atoms: _500  and  _501
REMARK  205  A    between atoms: _504  and  _506
REMARK  206  A    between atoms: _506  and  _507
REMARK  207  A    between atoms: _506  and  _509
REMARK  208  A    between atoms: _509  and  _510
REMARK  209  A    between atoms: _510  and  _511
REMARK  210  A    between atoms: _513  and  _515
REMARK  211  A    between atoms: _515  and  _516
REMARK  212  A    between atoms: _515  and  _518
REMARK  213  A    between atoms: _518  and  _519
REMARK  214  A    between atoms: _524  and  _525
REMARK  215  A    between atoms: _527  and  _529
REMARK  216  A    between atoms: _529  and  _530
REMARK  217  A    between atoms: _529  and  _532
REMARK  218  A    between atoms: _532  and  _533
REMARK  219  A    between atoms: _536  and  _538
REMARK  220  A    between atoms: _538  and  _539
REMARK  221  A    between atoms: _538  and  _541
REMARK  222  A    between atoms: _541  and  _542
REMARK  223  A    between atoms: _542  and  _543
REMARK  224  A    between atoms: _543  and  _544
REMARK  225  A    between atoms: _544  and  _545
REMARK  226  A    between atoms: _549  and  _551
REMARK  227  A    between atoms: _551  and  _552
REMARK  228  A    between atoms: _551  and  _554
REMARK  229  A    between atoms: _554  and  _555
REMARK  230  A    between atoms: _560  and  _561
REMARK  231  A    between atoms: _563  and  _565
REMARK  232  A    between atoms: _565  and  _566
REMARK  233  A    between atoms: _565  and  _568
REMARK  234  A    between atoms: _568  and  _569
REMARK  235  A    between atoms: _574  and  _575
REMARK                            x       y       z     vdW  Elec       q    Type
REMARK                         _______ _______ _______ _____ _____    ______ ____
ROOT
ATOM      1  CA  ASN A   4      21.489  16.393   7.159  0.00  0.00    +0.158 C 
ENDROOT
BRANCH   1   2
ATOM      2  C   ASN A   4      20.371  16.426   8.194  0.00  0.00    +0.241 C 
ATOM      3  O   ASN A   4      20.446  15.762   9.232  0.00  0.00    -0.273 OA
ATOM      4  N   CYS A   5      19.337  17.206   7.909  0.00  0.00    -0.296 N 
ATOM      5  H   CYS A   5      19.402  17.859   7.102  0.00  0.00    +0.150 HD
BRANCH   4   6
ATOM      6  CA  CYS A   5      18.113  17.173   8.696  0.00  0.00    +0.160 C 
BRANCH   6   7
ATOM      7  C   CYS A   5      17.002  16.618   7.811  0.00  0.00    +0.242 C 
ATOM      8  N   MET A   6      16.087  15.859   8.409  0.00  0.00    -0.297 N 
ATOM      9  H   MET A   6      16.146  15.715   9.437  0.00  0.00    +0.150 HD
ATOM     10  O   CYS A   5      16.985  16.870   6.602  0.00  0.00    -0.273 OA
BRANCH   8  11
ATOM     11  CA  MET A   6      15.000  15.220   7.664  0.00  0.00    +0.149 C 
BRANCH  11  12
ATOM     12  C   MET A   6      13.645  15.748   8.128  0.00  0.00    +0.241 C 
ATOM     13  O   MET A   6      13.524  16.276   9.235  0.00  0.00    -0.273 OA
ATOM     14  N   LEU A   7      12.632  15.600   7.279  0.00  0.00    -0.297 N 
ATOM     15  H   LEU A   7      12.815  15.186   6.343  0.00  0.00    +0.150 HD
BRANCH  14  16
ATOM     16  CA  LEU A   7      11.271  16.002   7.623  0.00  0.00    +0.149 C 
BRANCH  16  17
ATOM     17  C   LEU A   7      10.333  14.802   7.582  0.00  0.00    +0.241 C 
ATOM     18  N   ASP A   8       9.613  14.562   8.673  0.00  0.00    -0.298 N 
ATOM     19  H   ASP A   8       9.709  15.178   9.505  0.00  0.00    +0.150 HD
ATOM     20  O   LEU A   7      10.262  14.102   6.573  0.00  0.00    -0.273 OA
BRANCH  18  21
ATOM     21  CA  ASP A   8       8.691  13.437   8.702  0.00  0.00    +0.148 C 
BRANCH  21  22
ATOM     22  C   ASP A   8       7.323  13.832   8.155  0.00  0.00    +0.227 C 
ATOM     23  O   ASP A   8       7.145  14.945   7.661  0.00  0.00    -0.286 OA
ENDBRANCH  21  22
BRANCH  21  24
ATOM     24  CB  ASP A   8       8.579  12.863  10.125  0.00  0.00    +0.142 C 
BRANCH  24  25
ATOM     25  CG  ASP A   8       7.760  13.735  11.066  0.00  0.00    +0.367 C 
ATOM     26  OD2 ASP A   8       7.700  13.390  12.266  0.00  0.00    -0.246 OA
ATOM     27  OD1 ASP A   8       7.177  14.748  10.628  0.00  0.00    -0.246 OA
ENDBRANCH  24  25
ENDBRANCH  21  24
ENDBRANCH  18  21
ENDBRANCH  16  17
BRANCH  16  28
ATOM     28  CB  LEU A   7      10.770  17.066   6.648  0.00  0.00    +0.029 C 
BRANCH  28  29
ATOM     29  CG  LEU A   7      11.067  18.524   7.001  0.00  0.00    +0.002 C 
ATOM     30  CD2 LEU A   7      10.354  18.872   8.294  0.00  0.00    +0.000 C 
ATOM     31  CD1 LEU A   7      10.594  19.440   5.882  0.00  0.00    +0.000 C 
ENDBRANCH  28  29
ENDBRANCH  16  28
ENDBRANCH  14  16
ENDBRANCH  11  12
BRANCH  11  32
ATOM     32  CB  MET A   6      15.039  13.700   7.860  0.00  0.00    +0.041 C 
BRANCH  32  33
ATOM     33  CG  MET A   6      16.325  13.035   7.405  0.00  0.00    +0.060 C 
BRANCH  33  34
ATOM     34  SD  MET A   6      16.558  13.077   5.617  0.00  0.00    -0.139 S 
ATOM     35  CE  MET A   6      15.232  12.071   5.088  0.00  0.00    +0.069 C 
ENDBRANCH  33  34
ENDBRANCH  32  33
ENDBRANCH  11  32
ENDBRANCH   8  11
ENDBRANCH   6   7
BRANCH   6  36
ATOM     36  CB  CYS A   5      17.753  18.587   9.171  0.00  0.00    +0.098 C 
ATOM     37  SG  CYS A   5      18.991  19.345  10.271  0.00  0.00    -0.080 S 
ENDBRANCH   6  36
ENDBRANCH   4   6
ENDBRANCH   1   2
BRANCH   1  39
ATOM     38  C   ARG A   3      21.050  17.278   4.944  0.00  0.00    +0.241 C 
ATOM     39  N   ASN A   4      21.449  17.490   6.195  0.00  0.00    -0.297 N 
ATOM     40  H   ASN A   4      21.735  18.445   6.490  0.00  0.00    +0.150 HD
ATOM     41  O   ARG A   3      20.587  16.203   4.575  0.00  0.00    -0.273 OA
BRANCH  38  42
ATOM     42  CA  ARG A   3      21.194  18.436   3.958  0.00  0.00    +0.149 C 
BRANCH  42  45
ATOM     43  C   ALA A   2      20.241  20.167   5.371  0.00  0.00    +0.241 C 
ATOM     44  O   ALA A   2      19.217  19.508   5.544  0.00  0.00    -0.273 OA
ATOM     45  N   ARG A   3      21.260  19.728   4.639  0.00  0.00    -0.297 N 
ATOM     46  H   ARG A   3      22.116  20.312   4.549  0.00  0.00    +0.150 HD
BRANCH  43  47
ATOM     47  CA  ALA A   2      20.403  21.537   6.019  0.00  0.00    +0.149 C 
ATOM     48  CB  ALA A   2      19.974  22.641   5.048  0.00  0.00    +0.031 C 
BRANCH  47  51
ATOM     49  C   ALA A   1      22.359  20.894   7.288  0.00  0.00    +0.238 C 
ATOM     50  O   ALA A   1      21.782  19.900   7.712  0.00  0.00    -0.274 OA
ATOM     51  N   ALA A   2      21.787  21.743   6.442  0.00  0.00    -0.297 N 
ATOM     52  H   ALA A   2      22.325  22.556   6.080  0.00  0.00    +0.150 HD
BRANCH  49  53
ATOM     53  CA  ALA A   1      23.786  21.192   7.736  0.00  0.00    +0.145 C 
ATOM     54  CB  ALA A   1      24.778  20.653   6.716  0.00  0.00    +0.028 C 
BRANCH  53  55
ATOM     55  N   ALA A   1      23.953  20.503   9.011  0.00  0.00    -0.238 NA
ATOM     56  H   ALA A   1      23.192  19.873   9.336  0.00  0.00    +0.142 HD
ENDBRANCH  53  55
ENDBRANCH  49  53
ENDBRANCH  47  51
ENDBRANCH  43  47
ENDBRANCH  42  45
BRANCH  42  57
ATOM     57  CB  ARG A   3      22.448  18.213   3.108  0.00  0.00    +0.033 C 
BRANCH  57  58
ATOM     58  CG  ARG A   3      23.716  18.086   3.935  0.00  0.00    +0.045 C 
BRANCH  58  59
ATOM     59  CD  ARG A   3      24.936  17.713   3.104  0.00  0.00    +0.174 C 
BRANCH  59  60
ATOM     60  NE  ARG A   3      26.142  17.854   3.916  0.00  0.00    -0.265 N 
ATOM     61  HE  ARG A   3      26.534  17.000   4.362  0.00  0.00    +0.259 HD
ATOM     62  CZ  ARG A   3      26.768  19.007   4.119  0.00  0.00    +0.342 C 
ATOM     63  NH2 ARG A   3      27.823  19.058   4.915  0.00  0.00    -0.292 N 
ATOM     64 HH21 ARG A   3      28.163  18.194   5.383  0.00  0.00    +0.255 HD
ATOM     65 HH22 ARG A   3      28.312  19.962   5.073  0.00  0.00    +0.255 HD
ATOM     66  NH1 ARG A   3      26.316  20.119   3.561  0.00  0.00    -0.292 N 
ATOM     67 HH11 ARG A   3      26.810  21.020   3.723  0.00  0.00    +0.255 HD
ATOM     68 HH12 ARG A   3      25.467  20.092   2.961  0.00  0.00    +0.255 HD
ENDBRANCH  59  60
ENDBRANCH  58  59
ENDBRANCH  57  58
ENDBRANCH  42  57
ENDBRANCH  38  42
ENDBRANCH   1  39
BRANCH   1  69
ATOM     69  CB  ASN A   4      22.851  16.361   7.855  0.00  0.00    +0.114 C 
BRANCH  69  70
ATOM     70  CG  ASN A   4      23.963  15.932   6.920  0.00  0.00    +0.222 C 
ATOM     71  ND2 ASN A   4      25.187  16.361   7.206  0.00  0.00    -0.329 N 
ATOM     72 HD21 ASN A   4      25.346  16.959   8.041  0.00  0.00    +0.145 HD
ATOM     73 HD22 ASN A   4      25.986  16.098   6.594  0.00  0.00    +0.145 HD
ATOM     74  OD1 ASN A   4      23.720  15.224   5.947  0.00  0.00    -0.275 OA
ENDBRANCH  69  70
ENDBRANCH   1  69
TORSDOF 30
REMARK  Name = ../refined-set-2016/3zze/3zze_pocket.pdb
REMARK  235 active torsions:
REMARK  status: ('A' for Active; 'I' for Inactive)
REMARK    1  A    between atoms: _1  and  _3
REMARK    2  A    between atoms: _3  and  _4
REMARK    3  A    between atoms: _3  and  _6
REMARK    4  A    between atoms: _9  and  _11
REMARK    5  A    between atoms: _11  and  _12
REMARK    6  A    between atoms: _11  and  _14
REMARK    7  A    between atoms: _14  and  _15
REMARK    8  A    between atoms: _18  and  _20
REMARK    9  A    between atoms: _20  and  _21
REMARK   10  A    between atoms: _23  and  _25
REMARK   11  A    between atoms: _25  and  _26
REMARK   12  A    between atoms: _25  and  _28
REMARK   13  A    between atoms: _28  and  _29
REMARK   14  A    between atoms: _29  and  _30
REMARK   15  A    between atoms: _30  and  _31
REMARK   16  A    between atoms: _40  and  _42
REMARK   17  A    between atoms: _42  and  _43
REMARK   18  A    between atoms: _45  and  _47
REMARK   19  A    between atoms: _47  and  _48
REMARK   20  A    between atoms: _50  and  _52
REMARK   21  A    between atoms: _52  and  _53
REMARK   22  A    between atoms: _52  and  _55
REMARK   23  A    between atoms: _57  and  _59
REMARK   24  A    between atoms: _59  and  _60
REMARK   25  A    between atoms: _59  and  _62
REMARK   26  A    between atoms: _65  and  _67
REMARK   27  A    between atoms: _67  and  _68
REMARK   28  A    between atoms: _67  and  _70
REMARK   29  A    between atoms: _70  and  _71
REMARK   30  A    between atoms: _76  and  _77
REMARK   31  A    between atoms: _79  and  _81
REMARK   32  A    between atoms: _81  and  _82
REMARK   33  A    between atoms: _81  and  _84
REMARK   34  A    between atoms: _84  and  _85
REMARK   35  A    between atoms: _90  and  _92
REMARK   36  A    between atoms: _92  and  _93
REMARK   37  A    between atoms: _95  and  _97
REMARK   38  A    between atoms: _97  and  _98
REMARK   39  A    between atoms: _97  and  _100
REMARK   40  A    between atoms: _100  and  _101
REMARK   41  A    between atoms: _106  and  _108
REMARK   42  A    between atoms: _108  and  _109
REMARK   43  A    between atoms: _108  and  _111
REMARK   44  A    between atoms: _113  and  _115
REMARK   45  A    between atoms: _115  and  _116
REMARK   46  A    between atoms: _119  and  _121
REMARK   47  A    between atoms: _121  and  _122
REMARK   48  A    between atoms: _121  and  _124
REMARK   49  A    between atoms: _127  and  _129
REMARK   50  A    between atoms: _129  and  _130
REMARK   51  A    between atoms: _129  and  _132
REMARK   52  A    between atoms: _132  and  _133
REMARK   53  A    between atoms: _133  and  _134
REMARK   54  A    between atoms: _134  and  _135
REMARK   55  A    between atoms: _135  and  _136
REMARK   56  A    between atoms: _140  and  _142
REMARK   57  A    between atoms: _142  and  _143
REMARK   58  A    between atoms: _142  and  _145
REMARK   59  A    between atoms: _145  and  _146
REMARK   60  A    between atoms: _148  and  _150
REMARK   61  A    between atoms: _150  and  _151
REMARK   62  A    between atoms: _150  and  _153
REMARK   63  A    between atoms: _153  and  _154
REMARK   64  A    between atoms: _154  and  _155
REMARK   65  A    between atoms: _157  and  _159
REMARK   66  A    between atoms: _159  and  _160
REMARK   67  A    between atoms: _159  and  _162
REMARK   68  A    between atoms: _162  and  _163
REMARK   69  A    between atoms: _166  and  _168
REMARK   70  A    between atoms: _168  and  _169
REMARK   71  A    between atoms: _168  and  _171
REMARK   72  A    between atoms: _171  and  _172
REMARK   73  A    between atoms: _174  and  _176
REMARK   74  A    between atoms: _176  and  _177
REMARK   75  A    between atoms: _176  and  _179
REMARK   76  A    between atoms: _182  and  _184
REMARK   77  A    between atoms: _184  and  _185
REMARK   78  A    between atoms: _184  and  _187
REMARK   79  A    between atoms: _190  and  _192
REMARK   80  A    between atoms: _192  and  _193
REMARK   81  A    between atoms: _192  and  _195
REMARK   82  A    between atoms: _195  and  _196
REMARK   83  A    between atoms: _200  and  _201
REMARK   84  A    between atoms: _206  and  _208
REMARK   85  A    between atoms: _208  and  _209
REMARK   86  A    between atoms: _208  and  _211
REMARK   87  A    between atoms: _211  and  _212
REMARK   88  A    between atoms: _217  and  _218
REMARK   89  A    between atoms: _220  and  _222
REMARK   90  A    between atoms: _222  and  _223
REMARK   91  A    between atoms: _222  and  _225
REMARK   92  A    between atoms: _225  and  _226
REMARK   93  A    between atoms: _226  and  _227
REMARK   94  A    between atoms: _229  and  _231
REMARK   95  A    between atoms: _231  and  _232
REMARK   96  A    between atoms: _231  and  _234
REMARK   97  A    between atoms: _234  and  _235
REMARK   98  A    between atoms: _235  and  _236
REMARK   99  A    between atoms: _236  and  _237
REMARK  100  A    between atoms: _237  and  _238
REMARK  101  A    between atoms: _242  and  _244
REMARK  102  A    between atoms: _244  and  _245
REMARK  103  A    between atoms: _244  and  _247
REMARK  104  A    between atoms: _247  and  _248
REMARK  105  A    between atoms: _253  and  _255
REMARK  106  A    between atoms: _255  and  _256
REMARK  107  A    between atoms: _258  and  _260
REMARK  108  A    between atoms: _260  and  _261
REMARK  109  A    between atoms: _260  and  _263
REMARK  110  A    between atoms: _263  and  _264
REMARK  111  A    between atoms: _267  and  _269
REMARK  112  A    between atoms: _269  and  _270
REMARK  113  A    between atoms: _269  and  _272
REMARK  114  A    between atoms: _272  and  _273
REMARK  115  A    between atoms: _276  and  _278
REMARK  116  A    between atoms: _278  and  _279
REMARK  117  A    between atoms: _278  and  _281
REMARK  118  A    between atoms: _281  and  _282
REMARK  119  A    between atoms: _282  and  _283
REMARK  120  A    between atoms: _283  and  _284
REMARK  121  A    between atoms: _293  and  _295
REMARK  122  A    between atoms: _295  and  _296
REMARK  123  A    between atoms: _295  and  _298
REMARK  124  A    between atoms: _298  and  _299
REMARK  125  A    between atoms: _304  and  _306
REMARK  126  A    between atoms: _306  and  _307
REMARK  127  A    between atoms: _306  and  _309
REMARK  128  A    between atoms: _309  and  _310
REMARK  129  A    between atoms: _310  and  _311
REMARK  130  A    between atoms: _311  and  _312
REMARK  131  A    between atoms: _321  and  _323
REMARK  132  A    between atoms: _323  and  _324
REMARK  133  A    between atoms: _323  and  _326
REMARK  134  A    between atoms: _326  and  _327
REMARK  135  A    between atoms: _332  and  _334
REMARK  136  A    between atoms: _334  and  _335
REMARK  137  A    between atoms: _334  and  _337
REMARK  138  A    between atoms: _337  and  _338
REMARK  139  A    between atoms: _341  and  _343
REMARK  140  A    between atoms: _343  and  _344
REMARK  141  A    between atoms: _347  and  _349
REMARK  142  A    between atoms: _349  and  _350
REMARK  143  A    between atoms: _353  and  _355
REMARK  144  A    between atoms: _355  and  _356
REMARK  145  A    between atoms: _355  and  _358
REMARK  146  A    between atoms: _358  and  _359
REMARK  147  A    between atoms: _359  and  _360
REMARK  148  A    between atoms: _360  and  _361
REMARK  149  A    between atoms: _370  and  _372
REMARK  150  A    between atoms: _372  and  _373
REMARK  151  A    between atoms: _372  and  _375
REMARK  152  A    between atoms: _375  and  _376
REMARK  153  A    between atoms: _381  and  _383
REMARK  154  A    between atoms: _383  and  _384
REMARK  155  A    between atoms: _383  and  _386
REMARK  156  A    between atoms: _388  and  _390
REMARK  157  A    between atoms: _390  and  _391
REMARK  158  A    between atoms: _390  and  _393
REMARK  159  A    between atoms: _393  and  _394
REMARK  160  A    between atoms: _394  and  _395
REMARK  161  A    between atoms: _397  and  _399
REMARK  162  A    between atoms: _399  and  _400
REMARK  163  A    between atoms: _399  and  _402
REMARK  164  A    between atoms: _402  and  _403
REMARK  165  A    between atoms: _406  and  _408
REMARK  166  A    between atoms: _408  and  _409
REMARK  167  A    between atoms: _408  and  _411
REMARK  168  A    between atoms: _411  and  _412
REMARK  169  A    between atoms: _415  and  _417
REMARK  170  A    between atoms: _417  and  _418
REMARK  171  A    between atoms: _417  and  _420
REMARK  172  A    between atoms: _420  and  _421
REMARK  173  A    between atoms: _421  and  _422
REMARK  174  A    between atoms: _422  and  _423
REMARK  175  A    between atoms: _423  and  _424
REMARK  176  A    between atoms: _428  and  _430
REMARK  177  A    between atoms: _430  and  _431
REMARK  178  A    between atoms: _430  and  _433
REMARK  179  A    between atoms: _436  and  _438
REMARK  180  A    between atoms: _438  and  _439
REMARK  181  A    between atoms: _442  and  _444
REMARK  182  A    between atoms: _444  and  _445
REMARK  183  A    between atoms: _444  and  _447
REMARK  184  A    between atoms: _447  and  _448
REMARK  185  A    between atoms: _451  and  _453
REMARK  186  A    between atoms: _453  and  _454
REMARK  187  A    between atoms: _453  and  _456
REMARK  188  A    between atoms: _456  and  _457
REMARK  189  A    between atoms: _463  and  _465
REMARK  190  A    between atoms: _465  and  _466
REMARK  191  A    between atoms: _465  and  _468
REMARK  192  A    between atoms: _468  and  _469
REMARK  193  A    between atoms: _472  and  _474
REMARK  194  A    between atoms: _474  and  _475
REMARK  195  A    between atoms: _478  and  _480
REMARK  196  A    between atoms: _480  and  _481
REMARK  197  A    between atoms: _480  and  _483
REMARK  198  A    between atoms: _483  and  _484
REMARK  199  A    between atoms: _484  and  _485
REMARK  200  A    between atoms: _485  and  _486
REMARK  201  A    between atoms: _495  and  _497
REMARK  202  A    between atoms: _497  and  _498
REMARK  203  A    between atoms: _497  and  _500
REMARK  204  A    between atoms: _500  and  _501
REMARK  205  A    between atoms: _504  and  _506
REMARK  206  A    between atoms: _506  and  _507
REMARK  207  A    between atoms: _506  and  _509
REMARK  208  A    between atoms: _509  and  _510
REMARK  209  A    between atoms: _510  and  _511
REMARK  210  A    between atoms: _513  and  _515
REMARK  211  A    between atoms: _515  and  _516
REMARK  212  A    between atoms: _515  and  _518
REMARK  213  A    between atoms: _518  and  _519
REMARK  214  A    between atoms: _524  and  _525
REMARK  215  A    between atoms: _527  and  _529
REMARK  216  A    between atoms: _529  and  _530
REMARK  217  A    between atoms: _529  and  _532
REMARK  218  A    between atoms: _532  and  _533
REMARK  219  A    between atoms: _536  and  _538
REMARK  220  A    between atoms: _538  and  _539
REMARK  221  A    between atoms: _538  and  _541
REMARK  222  A    between atoms: _541  and  _542
REMARK  223  A    between atoms: _542  and  _543
REMARK  224  A    between atoms: _543  and  _544
REMARK  225  A    between atoms: _544  and  _545
REMARK  226  A    between atoms: _549  and  _551
REMARK  227  A    between atoms: _551  and  _552
REMARK  228  A    between atoms: _551  and  _554
REMARK  229  A    between atoms: _554  and  _555
REMARK  230  A    between atoms: _560  and  _561
REMARK  231  A    between atoms: _563  and  _565
REMARK  232  A    between atoms: _565  and  _566
REMARK  233  A    between atoms: _565  and  _568
REMARK  234  A    between atoms: _568  and  _569
REMARK  235  A    between atoms: _574  and  _575
REMARK                            x       y       z     vdW  Elec       q    Type
REMARK                         _______ _______ _______ _____ _____    ______ ____
ROOT
ATOM      1  CA  ALA A   3      19.640  13.205  11.355  0.00  0.00    +0.149 C 
ATOM      2  CB  ALA A   3      18.859  12.828  10.099  0.00  0.00    +0.031 C 
ENDROOT
BRANCH   1   3
ATOM      3  C   ALA A   3      21.136  13.091  11.095  0.00  0.00    +0.241 C 
ATOM      4  O   ALA A   3      21.896  13.961  11.495  0.00  0.00    -0.273 OA
ATOM      5  N   ASP A   4      21.555  12.022  10.425  0.00  0.00    -0.297 N 
ATOM      6  H   ASP A   4      20.864  11.301  10.135  0.00  0.00    +0.150 HD
BRANCH   5   7
ATOM      7  CA  ASP A   4      22.964  11.836  10.086  0.00  0.00    +0.160 C 
BRANCH   7   8
ATOM      8  C   ASP A   4      23.870  11.957  11.315  0.00  0.00    +0.241 C 
ATOM      9  N   PHE A   5      23.554  11.205  12.363  0.00  0.00    -0.298 N 
ATOM     10  H   PHE A   5      22.650  10.691  12.377  0.00  0.00    +0.150 HD
ATOM     11  O   ASP A   4      24.837  12.720  11.320  0.00  0.00    -0.273 OA
BRANCH   9  12
ATOM     12  CA  PHE A   5      24.468  11.095  13.496  0.00  0.00    +0.141 C 
BRANCH  12  13
ATOM     13  C   PHE A   5      24.411   9.694  14.080  0.00  0.00    +0.227 C 
ATOM     14  O   PHE A   5      23.513   8.914  13.760  0.00  0.00    -0.286 OA
ENDBRANCH  12  13
BRANCH  12  15
ATOM     15  CB  PHE A   5      24.121  12.122  14.576  0.00  0.00    +0.054 C 
BRANCH  15  16
ATOM     16  CG  PHE A   5      22.849  11.823  15.310  0.00  0.00    -0.020 A 
ATOM     17  CD2 PHE A   5      22.861  11.037  16.452  0.00  0.00    -0.004 A 
ATOM     18  CE2 PHE A   5      21.686  10.746  17.125  0.00  0.00    -0.000 A 
ATOM     19  CZ  PHE A   5      20.484  11.244  16.659  0.00  0.00    -0.000 A 
ATOM     20  CE1 PHE A   5      20.459  12.030  15.525  0.00  0.00    -0.000 A 
ATOM     21  CD1 PHE A   5      21.636  12.317  14.855  0.00  0.00    -0.004 A 
ENDBRANCH  15  16
ENDBRANCH  12  15
ENDBRANCH   9  12
ENDBRANCH   7   8
BRANCH   7  22
ATOM     22  CB  ASP A   4      23.387  12.860   9.027  0.00  0.00    +0.143 C 
BRANCH  22  23
ATOM     23  CG  ASP A   4      24.810  12.655   8.542  0.00  0.00    +0.367 C 
ATOM     24  OD2 ASP A   4      25.297  11.506   8.554  0.00  0.00    -0.246 OA
ATOM     25  OD1 ASP A   4      25.450  13.653   8.148  0.00  0.00    -0.246 OA
ENDBRANCH  22  23
ENDBRANCH   7  22
ENDBRANCH   5   7
ENDBRANCH   1   3
BRANCH   1  28
ATOM     26  C   VAL A   2      18.682  14.847  12.894  0.00  0.00    +0.241 C 
ATOM     27  O   VAL A   2      18.367  13.978  13.713  0.00  0.00    -0.273 OA
ATOM     28  N   ALA A   3      19.315  14.575  11.756  0.00  0.00    -0.297 N 
ATOM     29  H   ALA A   3      19.588  15.361  11.131  0.00  0.00    +0.150 HD
BRANCH  26  30
ATOM     30  CA  VAL A   2      18.318  16.309  13.138  0.00  0.00    +0.148 C 
BRANCH  30  32
ATOM     31  C   LYS A   1      16.051  15.991  12.371  0.00  0.00    +0.238 C 
ATOM     32  N   VAL A   2      16.878  16.347  13.346  0.00  0.00    -0.297 N 
ATOM     33  H   VAL A   2      16.495  16.655  14.263  0.00  0.00    +0.150 HD
ATOM     34  O   LYS A   1      16.427  15.816  11.211  0.00  0.00    -0.274 OA
BRANCH  31  35
ATOM     35  CA  LYS A   1      14.589  15.787  12.749  0.00  0.00    +0.145 C 
BRANCH  35  36
ATOM     36  N   LYS A   1      13.743  16.623  11.906  0.00  0.00    -0.238 NA
ATOM     37  H   LYS A   1      13.701  16.428  10.885  0.00  0.00    +0.142 HD
ENDBRANCH  35  36
BRANCH  35  38
ATOM     38  CB  LYS A   1      14.248  14.309  12.553  0.00  0.00    +0.026 C 
BRANCH  38  39
ATOM     39  CG  LYS A   1      12.765  13.986  12.537  0.00  0.00    -0.000 C 
BRANCH  39  40
ATOM     40  CD  LYS A   1      12.210  13.847  13.931  0.00  0.00    -0.024 C 
BRANCH  40  41
ATOM     41  CE  LYS A   1      10.808  13.248  13.897  0.00  0.00    -0.086 C 
BRANCH  41  42
ATOM     42  NZ  LYS A   1      10.188  13.268  15.246  0.00  0.00    +0.380 N 
ATOM     43  HZ1 LYS A   1      10.773  12.713  15.903  0.00  0.00    -0.089 HD
ATOM     44  HZ2 LYS A   1      10.124  14.250  15.582  0.00  0.00    -0.089 HD
ATOM     45  HZ3 LYS A   1       9.235  12.855  15.194  0.00  0.00    -0.089 HD
ENDBRANCH  41  42
ENDBRANCH  40  41
ENDBRANCH  39  40
ENDBRANCH  38  39
ENDBRANCH  35  38
ENDBRANCH  31  35
ENDBRANCH  30  32
BRANCH  30  46
ATOM     46  CB  VAL A   2      19.077  16.834  14.378  0.00  0.00    +0.027 C 
ATOM     47  CG2 VAL A   2      18.658  18.272  14.677  0.00  0.00    +0.002 C 
ATOM     48  CG1 VAL A   2      20.574  16.769  14.137  0.00  0.00    +0.002 C 
ENDBRANCH  30  46
ENDBRANCH  26  30
ENDBRANCH   1  28
TORSDOF 20
REMARK  Name = ../refined-set-2016/3zze/3zze_pocket.pdb
REMARK  235 active torsions:
REMARK  status: ('A' for Active; 'I' for Inactive)
REMARK    1  A    between atoms: _1  and  _3
REMARK    2  A    between atoms: _3  and  _4
REMARK    3  A    between atoms: _3  and  _6
REMARK    4  A    between atoms: _9  and  _11
REMARK    5  A    between atoms: _11  and  _12
REMARK    6  A    between atoms: _11  and  _14
REMARK    7  A    between atoms: _14  and  _15
REMARK    8  A    between atoms: _18  and  _20
REMARK    9  A    between atoms: _20  and  _21
REMARK   10  A    between atoms: _23  and  _25
REMARK   11  A    between atoms: _25  and  _26
REMARK   12  A    between atoms: _25  and  _28
REMARK   13  A    between atoms: _28  and  _29
REMARK   14  A    between atoms: _29  and  _30
REMARK   15  A    between atoms: _30  and  _31
REMARK   16  A    between atoms: _40  and  _42
REMARK   17  A    between atoms: _42  and  _43
REMARK   18  A    between atoms: _45  and  _47
REMARK   19  A    between atoms: _47  and  _48
REMARK   20  A    between atoms: _50  and  _52
REMARK   21  A    between atoms: _52  and  _53
REMARK   22  A    between atoms: _52  and  _55
REMARK   23  A    between atoms: _57  and  _59
REMARK   24  A    between atoms: _59  and  _60
REMARK   25  A    between atoms: _59  and  _62
REMARK   26  A    between atoms: _65  and  _67
REMARK   27  A    between atoms: _67  and  _68
REMARK   28  A    between atoms: _67  and  _70
REMARK   29  A    between atoms: _70  and  _71
REMARK   30  A    between atoms: _76  and  _77
REMARK   31  A    between atoms: _79  and  _81
REMARK   32  A    between atoms: _81  and  _82
REMARK   33  A    between atoms: _81  and  _84
REMARK   34  A    between atoms: _84  and  _85
REMARK   35  A    between atoms: _90  and  _92
REMARK   36  A    between atoms: _92  and  _93
REMARK   37  A    between atoms: _95  and  _97
REMARK   38  A    between atoms: _97  and  _98
REMARK   39  A    between atoms: _97  and  _100
REMARK   40  A    between atoms: _100  and  _101
REMARK   41  A    between atoms: _106  and  _108
REMARK   42  A    between atoms: _108  and  _109
REMARK   43  A    between atoms: _108  and  _111
REMARK   44  A    between atoms: _113  and  _115
REMARK   45  A    between atoms: _115  and  _116
REMARK   46  A    between atoms: _119  and  _121
REMARK   47  A    between atoms: _121  and  _122
REMARK   48  A    between atoms: _121  and  _124
REMARK   49  A    between atoms: _127  and  _129
REMARK   50  A    between atoms: _129  and  _130
REMARK   51  A    between atoms: _129  and  _132
REMARK   52  A    between atoms: _132  and  _133
REMARK   53  A    between atoms: _133  and  _134
REMARK   54  A    between atoms: _134  and  _135
REMARK   55  A    between atoms: _135  and  _136
REMARK   56  A    between atoms: _140  and  _142
REMARK   57  A    between atoms: _142  and  _143
REMARK   58  A    between atoms: _142  and  _145
REMARK   59  A    between atoms: _145  and  _146
REMARK   60  A    between atoms: _148  and  _150
REMARK   61  A    between atoms: _150  and  _151
REMARK   62  A    between atoms: _150  and  _153
REMARK   63  A    between atoms: _153  and  _154
REMARK   64  A    between atoms: _154  and  _155
REMARK   65  A    between atoms: _157  and  _159
REMARK   66  A    between atoms: _159  and  _160
REMARK   67  A    between atoms: _159  and  _162
REMARK   68  A    between atoms: _162  and  _163
REMARK   69  A    between atoms: _166  and  _168
REMARK   70  A    between atoms: _168  and  _169
REMARK   71  A    between atoms: _168  and  _171
REMARK   72  A    between atoms: _171  and  _172
REMARK   73  A    between atoms: _174  and  _176
REMARK   74  A    between atoms: _176  and  _177
REMARK   75  A    between atoms: _176  and  _179
REMARK   76  A    between atoms: _182  and  _184
REMARK   77  A    between atoms: _184  and  _185
REMARK   78  A    between atoms: _184  and  _187
REMARK   79  A    between atoms: _190  and  _192
REMARK   80  A    between atoms: _192  and  _193
REMARK   81  A    between atoms: _192  and  _195
REMARK   82  A    between atoms: _195  and  _196
REMARK   83  A    between atoms: _200  and  _201
REMARK   84  A    between atoms: _206  and  _208
REMARK   85  A    between atoms: _208  and  _209
REMARK   86  A    between atoms: _208  and  _211
REMARK   87  A    between atoms: _211  and  _212
REMARK   88  A    between atoms: _217  and  _218
REMARK   89  A    between atoms: _220  and  _222
REMARK   90  A    between atoms: _222  and  _223
REMARK   91  A    between atoms: _222  and  _225
REMARK   92  A    between atoms: _225  and  _226
REMARK   93  A    between atoms: _226  and  _227
REMARK   94  A    between atoms: _229  and  _231
REMARK   95  A    between atoms: _231  and  _232
REMARK   96  A    between atoms: _231  and  _234
REMARK   97  A    between atoms: _234  and  _235
REMARK   98  A    between atoms: _235  and  _236
REMARK   99  A    between atoms: _236  and  _237
REMARK  100  A    between atoms: _237  and  _238
REMARK  101  A    between atoms: _242  and  _244
REMARK  102  A    between atoms: _244  and  _245
REMARK  103  A    between atoms: _244  and  _247
REMARK  104  A    between atoms: _247  and  _248
REMARK  105  A    between atoms: _253  and  _255
REMARK  106  A    between atoms: _255  and  _256
REMARK  107  A    between atoms: _258  and  _260
REMARK  108  A    between atoms: _260  and  _261
REMARK  109  A    between atoms: _260  and  _263
REMARK  110  A    between atoms: _263  and  _264
REMARK  111  A    between atoms: _267  and  _269
REMARK  112  A    between atoms: _269  and  _270
REMARK  113  A    between atoms: _269  and  _272
REMARK  114  A    between atoms: _272  and  _273
REMARK  115  A    between atoms: _276  and  _278
REMARK  116  A    between atoms: _278  and  _279
REMARK  117  A    between atoms: _278  and  _281
REMARK  118  A    between atoms: _281  and  _282
REMARK  119  A    between atoms: _282  and  _283
REMARK  120  A    between atoms: _283  and  _284
REMARK  121  A    between atoms: _293  and  _295
REMARK  122  A    between atoms: _295  and  _296
REMARK  123  A    between atoms: _295  and  _298
REMARK  124  A    between atoms: _298  and  _299
REMARK  125  A    between atoms: _304  and  _306
REMARK  126  A    between atoms: _306  and  _307
REMARK  127  A    between atoms: _306  and  _309
REMARK  128  A    between atoms: _309  and  _310
REMARK  129  A    between atoms: _310  and  _311
REMARK  130  A    between atoms: _311  and  _312
REMARK  131  A    between atoms: _321  and  _323
REMARK  132  A    between atoms: _323  and  _324
REMARK  133  A    between atoms: _323  and  _326
REMARK  134  A    between atoms: _326  and  _327
REMARK  135  A    between atoms: _332  and  _334
REMARK  136  A    between atoms: _334  and  _335
REMARK  137  A    between atoms: _334  and  _337
REMARK  138  A    between atoms: _337  and  _338
REMARK  139  A    between atoms: _341  and  _343
REMARK  140  A    between atoms: _343  and  _344
REMARK  141  A    between atoms: _347  and  _349
REMARK  142  A    between atoms: _349  and  _350
REMARK  143  A    between atoms: _353  and  _355
REMARK  144  A    between atoms: _355  and  _356
REMARK  145  A    between atoms: _355  and  _358
REMARK  146  A    between atoms: _358  and  _359
REMARK  147  A    between atoms: _359  and  _360
REMARK  148  A    between atoms: _360  and  _361
REMARK  149  A    between atoms: _370  and  _372
REMARK  150  A    between atoms: _372  and  _373
REMARK  151  A    between atoms: _372  and  _375
REMARK  152  A    between atoms: _375  and  _376
REMARK  153  A    between atoms: _381  and  _383
REMARK  154  A    between atoms: _383  and  _384
REMARK  155  A    between atoms: _383  and  _386
REMARK  156  A    between atoms: _388  and  _390
REMARK  157  A    between atoms: _390  and  _391
REMARK  158  A    between atoms: _390  and  _393
REMARK  159  A    between atoms: _393  and  _394
REMARK  160  A    between atoms: _394  and  _395
REMARK  161  A    between atoms: _397  and  _399
REMARK  162  A    between atoms: _399  and  _400
REMARK  163  A    between atoms: _399  and  _402
REMARK  164  A    between atoms: _402  and  _403
REMARK  165  A    between atoms: _406  and  _408
REMARK  166  A    between atoms: _408  and  _409
REMARK  167  A    between atoms: _408  and  _411
REMARK  168  A    between atoms: _411  and  _412
REMARK  169  A    between atoms: _415  and  _417
REMARK  170  A    between atoms: _417  and  _418
REMARK  171  A    between atoms: _417  and  _420
REMARK  172  A    between atoms: _420  and  _421
REMARK  173  A    between atoms: _421  and  _422
REMARK  174  A    between atoms: _422  and  _423
REMARK  175  A    between atoms: _423  and  _424
REMARK  176  A    between atoms: _428  and  _430
REMARK  177  A    between atoms: _430  and  _431
REMARK  178  A    between atoms: _430  and  _433
REMARK  179  A    between atoms: _436  and  _438
REMARK  180  A    between atoms: _438  and  _439
REMARK  181  A    between atoms: _442  and  _444
REMARK  182  A    between atoms: _444  and  _445
REMARK  183  A    between atoms: _444  and  _447
REMARK  184  A    between atoms: _447  and  _448
REMARK  185  A    between atoms: _451  and  _453
REMARK  186  A    between atoms: _453  and  _454
REMARK  187  A    between atoms: _453  and  _456
REMARK  188  A    between atoms: _456  and  _457
REMARK  189  A    between atoms: _463  and  _465
REMARK  190  A    between atoms: _465  and  _466
REMARK  191  A    between atoms: _465  and  _468
REMARK  192  A    between atoms: _468  and  _469
REMARK  193  A    between atoms: _472  and  _474
REMARK  194  A    between atoms: _474  and  _475
REMARK  195  A    between atoms: _478  and  _480
REMARK  196  A    between atoms: _480  and  _481
REMARK  197  A    between atoms: _480  and  _483
REMARK  198  A    between atoms: _483  and  _484
REMARK  199  A    between atoms: _484  and  _485
REMARK  200  A    between atoms: _485  and  _486
REMARK  201  A    between atoms: _495  and  _497
REMARK  202  A    between atoms: _497  and  _498
REMARK  203  A    between atoms: _497  and  _500
REMARK  204  A    between atoms: _500  and  _501
REMARK  205  A    between atoms: _504  and  _506
REMARK  206  A    between atoms: _506  and  _507
REMARK  207  A    between atoms: _506  and  _509
REMARK  208  A    between atoms: _509  and  _510
REMARK  209  A    between atoms: _510  and  _511
REMARK  210  A    between atoms: _513  and  _515
REMARK  211  A    between atoms: _515  and  _516
REMARK  212  A    between atoms: _515  and  _518
REMARK  213  A    between atoms: _518  and  _519
REMARK  214  A    between atoms: _524  and  _525
REMARK  215  A    between atoms: _527  and  _529
REMARK  216  A    between atoms: _529  and  _530
REMARK  217  A    between atoms: _529  and  _532
REMARK  218  A    between atoms: _532  and  _533
REMARK  219  A    between atoms: _536  and  _538
REMARK  220  A    between atoms: _538  and  _539
REMARK  221  A    between atoms: _538  and  _541
REMARK  222  A    between atoms: _541  and  _542
REMARK  223  A    between atoms: _542  and  _543
REMARK  224  A    between atoms: _543  and  _544
REMARK  225  A    between atoms: _544  and  _545
REMARK  226  A    between atoms: _549  and  _551
REMARK  227  A    between atoms: _551  and  _552
REMARK  228  A    between atoms: _551  and  _554
REMARK  229  A    between atoms: _554  and  _555
REMARK  230  A    between atoms: _560  and  _561
REMARK  231  A    between atoms: _563  and  _565
REMARK  232  A    between atoms: _565  and  _566
REMARK  233  A    between atoms: _565  and  _568
REMARK  234  A    between atoms: _568  and  _569
REMARK  235  A    between atoms: _574  and  _575
REMARK                            x       y       z     vdW  Elec       q    Type
REMARK                         _______ _______ _______ _____ _____    ______ ____
ROOT
ATOM      1  C   ASP A   4      27.693  10.258   5.917  0.00  0.00    +0.241 C 
ATOM      2  O   ASP A   4      27.289  11.341   6.346  0.00  0.00    -0.273 OA
ATOM      3  N   MET A   5      28.303  10.121   4.746  0.00  0.00    -0.297 N 
ATOM      4  H   MET A   5      28.727   9.202   4.506  0.00  0.00    +0.150 HD
ENDROOT
BRANCH   3   5
ATOM      5  CA  MET A   5      28.400  11.211   3.786  0.00  0.00    +0.149 C 
BRANCH   5   6
ATOM      6  C   MET A   5      27.346  10.977   2.700  0.00  0.00    +0.241 C 
ATOM      7  N   TYR A   6      26.296  11.793   2.703  0.00  0.00    -0.297 N 
ATOM      8  H   TYR A   6      26.291  12.619   3.335  0.00  0.00    +0.150 HD
ATOM      9  O   MET A   5      27.480  10.069   1.879  0.00  0.00    -0.273 OA
BRANCH   7  10
ATOM     10  CA  TYR A   6      25.153  11.548   1.835  0.00  0.00    +0.153 C 
BRANCH  10  11
ATOM     11  C   TYR A   6      25.109  12.441   0.596  0.00  0.00    +0.241 C 
ATOM     12  N   ASP A   7      25.902  13.507   0.593  0.00  0.00    -0.297 N 
ATOM     13  H   ASP A   7      26.393  13.784   1.467  0.00  0.00    +0.150 HD
ATOM     14  O   TYR A   6      24.363  12.172  -0.343  0.00  0.00    -0.273 OA
BRANCH  12  15
ATOM     15  CA  ASP A   7      26.093  14.292  -0.618  0.00  0.00    +0.160 C 
BRANCH  15  16
ATOM     16  C   ASP A   7      27.565  14.679  -0.727  0.00  0.00    +0.241 C 
ATOM     17  O   ASP A   7      28.006  15.663  -0.127  0.00  0.00    -0.273 OA
ATOM     18  N   LYS A   8      28.314  13.902  -1.505  0.00  0.00    -0.298 N 
ATOM     19  H   LYS A   8      27.848  13.197  -2.111  0.00  0.00    +0.150 HD
BRANCH  18  20
ATOM     20  CA  LYS A   8      29.771  14.009  -1.534  0.00  0.00    +0.137 C 
BRANCH  20  21
ATOM     21  C   LYS A   8      30.264  15.353  -2.057  0.00  0.00    +0.227 C 
ATOM     22  O   LYS A   8      31.412  15.729  -1.823  0.00  0.00    -0.286 OA
ENDBRANCH  20  21
BRANCH  20  23
ATOM     23  CB  LYS A   8      30.363  12.880  -2.387  0.00  0.00    +0.028 C 
BRANCH  23  24
ATOM     24  CG  LYS A   8      29.802  12.818  -3.798  0.00  0.00    -0.000 C 
BRANCH  24  25
ATOM     25  CD  LYS A   8      30.384  11.650  -4.587  0.00  0.00    -0.024 C 
BRANCH  25  26
ATOM     26  CE  LYS A   8      31.763  11.977  -5.146  0.00  0.00    -0.086 C 
BRANCH  26  27
ATOM     27  NZ  LYS A   8      32.815  12.069  -4.094  0.00  0.00    +0.380 N 
ATOM     28  HZ1 LYS A   8      32.563  12.818  -3.418  0.00  0.00    -0.089 HD
ATOM     29  HZ2 LYS A   8      32.885  11.159  -3.595  0.00  0.00    -0.089 HD
ATOM     30  HZ3 LYS A   8      33.728  12.293  -4.538  0.00  0.00    -0.089 HD
ENDBRANCH  26  27
ENDBRANCH  25  26
ENDBRANCH  24  25
ENDBRANCH  23  24
ENDBRANCH  20  23
ENDBRANCH  18  20
ENDBRANCH  15  16
BRANCH  15  31
ATOM     31  CB  ASP A   7      25.211  15.548  -0.587  0.00  0.00    +0.143 C 
BRANCH  31  32
ATOM     32  CG  ASP A   7      25.290  16.348  -1.877  0.00  0.00    +0.367 C 
ATOM     33  OD2 ASP A   7      24.507  17.307  -2.033  0.00  0.00    -0.246 OA
ATOM     34  OD1 ASP A   7      26.134  16.015  -2.735  0.00  0.00    -0.246 OA
ENDBRANCH  31  32
ENDBRANCH  15  31
ENDBRANCH  12  15
ENDBRANCH  10  11
BRANCH  10  35
ATOM     35  CB  TYR A   6      23.857  11.702   2.631  0.00  0.00    +0.055 C 
BRANCH  35  36
ATOM     36  CG  TYR A   6      23.671  10.658   3.713  0.00  0.00    -0.020 A 
ATOM     37  CD2 TYR A   6      23.829  10.985   5.056  0.00  0.00    -0.001 A 
ATOM     38  CE2 TYR A   6      23.639  10.042   6.052  0.00  0.00    +0.036 A 
ATOM     39  CZ  TYR A   6      23.291   8.752   5.709  0.00  0.00    +0.134 A 
ATOM     40  CE1 TYR A   6      23.130   8.398   4.381  0.00  0.00    +0.036 A 
ATOM     41  CD1 TYR A   6      23.319   9.350   3.393  0.00  0.00    -0.001 A 
BRANCH  39  42
ATOM     42  OH  TYR A   6      23.106   7.814   6.697  0.00  0.00    -0.506 OA
ATOM     43  HH  TYR A   6      23.944   7.711   7.214  0.00  0.00    +0.292 HD
ENDBRANCH  39  42
ENDBRANCH  35  36
ENDBRANCH  10  35
ENDBRANCH   7  10
ENDBRANCH   5   6
BRANCH   5  44
ATOM     44  CB  MET A   5      29.807  11.227   3.175  0.00  0.00    +0.041 C 
BRANCH  44  45
ATOM     45  CG  MET A   5      30.051  12.321   2.148  0.00  0.00    +0.060 C 
BRANCH  45  46
ATOM     46  SD  MET A   5      31.754  12.291   1.503  0.00  0.00    -0.139 S 
ATOM     47  CE  MET A   5      31.831  10.633   0.816  0.00  0.00    +0.069 C 
ENDBRANCH  45  46
ENDBRANCH  44  45
ENDBRANCH   5  44
ENDBRANCH   3   5
BRANCH   1  48
ATOM     48  CA  ASP A   4      27.526   8.982   6.736  0.00  0.00    +0.160 C 
BRANCH  48  51
ATOM     49  C   ARG A   3      26.742   8.428   8.976  0.00  0.00    +0.241 C 
ATOM     50  O   ARG A   3      27.110   7.258   8.876  0.00  0.00    -0.273 OA
ATOM     51  N   ASP A   4      26.837   9.303   7.982  0.00  0.00    -0.297 N 
ATOM     52  H   ASP A   4      26.408  10.244   8.094  0.00  0.00    +0.150 HD
BRANCH  49  53
ATOM     53  CA  ARG A   3      26.159   8.956  10.283  0.00  0.00    +0.149 C 
BRANCH  53  55
ATOM     54  C   ALA A   2      23.965   7.919  10.273  0.00  0.00    +0.241 C 
ATOM     55  N   ARG A   3      25.153   8.058  10.856  0.00  0.00    -0.297 N 
ATOM     56  H   ARG A   3      25.369   7.526  11.723  0.00  0.00    +0.150 HD
ATOM     57  O   ALA A   2      23.671   8.501   9.230  0.00  0.00    -0.273 OA
BRANCH  54  58
ATOM     58  CA  ALA A   2      22.952   6.995  10.951  0.00  0.00    +0.149 C 
ATOM     59  CB  ALA A   2      21.638   7.744  11.175  0.00  0.00    +0.031 C 
BRANCH  58  61
ATOM     60  C   LEU A   1      24.042   5.281  12.302  0.00  0.00    +0.238 C 
ATOM     61  N   ALA A   2      23.442   6.464  12.219  0.00  0.00    -0.297 N 
ATOM     62  H   ALA A   2      23.318   7.028  13.084  0.00  0.00    +0.150 HD
ATOM     63  O   LEU A   1      24.199   4.541  11.333  0.00  0.00    -0.274 OA
BRANCH  60  64
ATOM     64  CA  LEU A   1      24.536   4.870  13.687  0.00  0.00    +0.145 C 
BRANCH  64  65
ATOM     65  N   LEU A   1      24.545   6.006  14.608  0.00  0.00    -0.238 NA
ATOM     66  H   LEU A   1      23.833   6.056  15.364  0.00  0.00    +0.142 HD
ENDBRANCH  64  65
BRANCH  64  67
ATOM     67  CB  LEU A   1      23.653   3.747  14.247  0.00  0.00    +0.026 C 
BRANCH  67  68
ATOM     68  CG  LEU A   1      24.096   3.211  15.614  0.00  0.00    +0.002 C 
ATOM     69  CD2 LEU A   1      23.080   2.196  16.138  0.00  0.00    +0.000 C 
ATOM     70  CD1 LEU A   1      25.472   2.573  15.481  0.00  0.00    +0.000 C 
ENDBRANCH  67  68
ENDBRANCH  64  67
ENDBRANCH  60  64
ENDBRANCH  58  61
ENDBRANCH  54  58
ENDBRANCH  53  55
BRANCH  53  71
ATOM     71  CB  ARG A   3      27.316   9.193  11.258  0.00  0.00    +0.033 C 
BRANCH  71  72
ATOM     72  CG  ARG A   3      28.451  10.005  10.627  0.00  0.00    +0.045 C 
BRANCH  72  73
ATOM     73  CD  ARG A   3      29.645  10.176  11.554  0.00  0.00    +0.174 C 
BRANCH  73  74
ATOM     74  NE  ARG A   3      30.371   8.927  11.760  0.00  0.00    -0.265 N 
ATOM     75  HE  ARG A   3      30.067   8.315  12.544  0.00  0.00    +0.259 HD
ATOM     76  CZ  ARG A   3      31.395   8.515  11.015  0.00  0.00    +0.342 C 
ATOM     77  NH2 ARG A   3      31.995   7.367  11.294  0.00  0.00    -0.292 N 
ATOM     78 HH21 ARG A   3      31.666   6.789  12.094  0.00  0.00    +0.255 HD
ATOM     79 HH22 ARG A   3      32.795   7.044  10.713  0.00  0.00    +0.255 HD
ATOM     80  NH1 ARG A   3      31.827   9.249   9.997  0.00  0.00    -0.292 N 
ATOM     81 HH11 ARG A   3      31.365  10.154   9.776  0.00  0.00    +0.255 HD
ATOM     82 HH12 ARG A   3      32.627   8.919   9.421  0.00  0.00    +0.255 HD
ENDBRANCH  73  74
ENDBRANCH  72  73
ENDBRANCH  71  72
ENDBRANCH  53  71
ENDBRANCH  49  53
ENDBRANCH  48  51
BRANCH  48  83
ATOM     83  CB  ASP A   4      26.726   7.947   5.935  0.00  0.00    +0.143 C 
BRANCH  83  84
ATOM     84  CG  ASP A   4      27.600   7.106   5.014  0.00  0.00    +0.367 C 
ATOM     85  OD2 ASP A   4      27.220   5.947   4.737  0.00  0.00    -0.246 OA
ATOM     86  OD1 ASP A   4      28.663   7.595   4.567  0.00  0.00    -0.246 OA
ENDBRANCH  83  84
ENDBRANCH  48  83
ENDBRANCH   1  48
TORSDOF 37
REMARK  Name = ../refined-set-2016/3zze/3zze_pocket.pdb
REMARK  235 active torsions:
REMARK  status: ('A' for Active; 'I' for Inactive)
REMARK    1  A    between atoms: _1  and  _3
REMARK    2  A    between atoms: _3  and  _4
REMARK    3  A    between atoms: _3  and  _6
REMARK    4  A    between atoms: _9  and  _11
REMARK    5  A    between atoms: _11  and  _12
REMARK    6  A    between atoms: _11  and  _14
REMARK    7  A    between atoms: _14  and  _15
REMARK    8  A    between atoms: _18  and  _20
REMARK    9  A    between atoms: _20  and  _21
REMARK   10  A    between atoms: _23  and  _25
REMARK   11  A    between atoms: _25  and  _26
REMARK   12  A    between atoms: _25  and  _28
REMARK   13  A    between atoms: _28  and  _29
REMARK   14  A    between atoms: _29  and  _30
REMARK   15  A    between atoms: _30  and  _31
REMARK   16  A    between atoms: _40  and  _42
REMARK   17  A    between atoms: _42  and  _43
REMARK   18  A    between atoms: _45  and  _47
REMARK   19  A    between atoms: _47  and  _48
REMARK   20  A    between atoms: _50  and  _52
REMARK   21  A    between atoms: _52  and  _53
REMARK   22  A    between atoms: _52  and  _55
REMARK   23  A    between atoms: _57  and  _59
REMARK   24  A    between atoms: _59  and  _60
REMARK   25  A    between atoms: _59  and  _62
REMARK   26  A    between atoms: _65  and  _67
REMARK   27  A    between atoms: _67  and  _68
REMARK   28  A    between atoms: _67  and  _70
REMARK   29  A    between atoms: _70  and  _71
REMARK   30  A    between atoms: _76  and  _77
REMARK   31  A    between atoms: _79  and  _81
REMARK   32  A    between atoms: _81  and  _82
REMARK   33  A    between atoms: _81  and  _84
REMARK   34  A    between atoms: _84  and  _85
REMARK   35  A    between atoms: _90  and  _92
REMARK   36  A    between atoms: _92  and  _93
REMARK   37  A    between atoms: _95  and  _97
REMARK   38  A    between atoms: _97  and  _98
REMARK   39  A    between atoms: _97  and  _100
REMARK   40  A    between atoms: _100  and  _101
REMARK   41  A    between atoms: _106  and  _108
REMARK   42  A    between atoms: _108  and  _109
REMARK   43  A    between atoms: _108  and  _111
REMARK   44  A    between atoms: _113  and  _115
REMARK   45  A    between atoms: _115  and  _116
REMARK   46  A    between atoms: _119  and  _121
REMARK   47  A    between atoms: _121  and  _122
REMARK   48  A    between atoms: _121  and  _124
REMARK   49  A    between atoms: _127  and  _129
REMARK   50  A    between atoms: _129  and  _130
REMARK   51  A    between atoms: _129  and  _132
REMARK   52  A    between atoms: _132  and  _133
REMARK   53  A    between atoms: _133  and  _134
REMARK   54  A    between atoms: _134  and  _135
REMARK   55  A    between atoms: _135  and  _136
REMARK   56  A    between atoms: _140  and  _142
REMARK   57  A    between atoms: _142  and  _143
REMARK   58  A    between atoms: _142  and  _145
REMARK   59  A    between atoms: _145  and  _146
REMARK   60  A    between atoms: _148  and  _150
REMARK   61  A    between atoms: _150  and  _151
REMARK   62  A    between atoms: _150  and  _153
REMARK   63  A    between atoms: _153  and  _154
REMARK   64  A    between atoms: _154  and  _155
REMARK   65  A    between atoms: _157  and  _159
REMARK   66  A    between atoms: _159  and  _160
REMARK   67  A    between atoms: _159  and  _162
REMARK   68  A    between atoms: _162  and  _163
REMARK   69  A    between atoms: _166  and  _168
REMARK   70  A    between atoms: _168  and  _169
REMARK   71  A    between atoms: _168  and  _171
REMARK   72  A    between atoms: _171  and  _172
REMARK   73  A    between atoms: _174  and  _176
REMARK   74  A    between atoms: _176  and  _177
REMARK   75  A    between atoms: _176  and  _179
REMARK   76  A    between atoms: _182  and  _184
REMARK   77  A    between atoms: _184  and  _185
REMARK   78  A    between atoms: _184  and  _187
REMARK   79  A    between atoms: _190  and  _192
REMARK   80  A    between atoms: _192  and  _193
REMARK   81  A    between atoms: _192  and  _195
REMARK   82  A    between atoms: _195  and  _196
REMARK   83  A    between atoms: _200  and  _201
REMARK   84  A    between atoms: _206  and  _208
REMARK   85  A    between atoms: _208  and  _209
REMARK   86  A    between atoms: _208  and  _211
REMARK   87  A    between atoms: _211  and  _212
REMARK   88  A    between atoms: _217  and  _218
REMARK   89  A    between atoms: _220  and  _222
REMARK   90  A    between atoms: _222  and  _223
REMARK   91  A    between atoms: _222  and  _225
REMARK   92  A    between atoms: _225  and  _226
REMARK   93  A    between atoms: _226  and  _227
REMARK   94  A    between atoms: _229  and  _231
REMARK   95  A    between atoms: _231  and  _232
REMARK   96  A    between atoms: _231  and  _234
REMARK   97  A    between atoms: _234  and  _235
REMARK   98  A    between atoms: _235  and  _236
REMARK   99  A    between atoms: _236  and  _237
REMARK  100  A    between atoms: _237  and  _238
REMARK  101  A    between atoms: _242  and  _244
REMARK  102  A    between atoms: _244  and  _245
REMARK  103  A    between atoms: _244  and  _247
REMARK  104  A    between atoms: _247  and  _248
REMARK  105  A    between atoms: _253  and  _255
REMARK  106  A    between atoms: _255  and  _256
REMARK  107  A    between atoms: _258  and  _260
REMARK  108  A    between atoms: _260  and  _261
REMARK  109  A    between atoms: _260  and  _263
REMARK  110  A    between atoms: _263  and  _264
REMARK  111  A    between atoms: _267  and  _269
REMARK  112  A    between atoms: _269  and  _270
REMARK  113  A    between atoms: _269  and  _272
REMARK  114  A    between atoms: _272  and  _273
REMARK  115  A    between atoms: _276  and  _278
REMARK  116  A    between atoms: _278  and  _279
REMARK  117  A    between atoms: _278  and  _281
REMARK  118  A    between atoms: _281  and  _282
REMARK  119  A    between atoms: _282  and  _283
REMARK  120  A    between atoms: _283  and  _284
REMARK  121  A    between atoms: _293  and  _295
REMARK  122  A    between atoms: _295  and  _296
REMARK  123  A    between atoms: _295  and  _298
REMARK  124  A    between atoms: _298  and  _299
REMARK  125  A    between atoms: _304  and  _306
REMARK  126  A    between atoms: _306  and  _307
REMARK  127  A    between atoms: _306  and  _309
REMARK  128  A    between atoms: _309  and  _310
REMARK  129  A    between atoms: _310  and  _311
REMARK  130  A    between atoms: _311  and  _312
REMARK  131  A    between atoms: _321  and  _323
REMARK  132  A    between atoms: _323  and  _324
REMARK  133  A    between atoms: _323  and  _326
REMARK  134  A    between atoms: _326  and  _327
REMARK  135  A    between atoms: _332  and  _334
REMARK  136  A    between atoms: _334  and  _335
REMARK  137  A    between atoms: _334  and  _337
REMARK  138  A    between atoms: _337  and  _338
REMARK  139  A    between atoms: _341  and  _343
REMARK  140  A    between atoms: _343  and  _344
REMARK  141  A    between atoms: _347  and  _349
REMARK  142  A    between atoms: _349  and  _350
REMARK  143  A    between atoms: _353  and  _355
REMARK  144  A    between atoms: _355  and  _356
REMARK  145  A    between atoms: _355  and  _358
REMARK  146  A    between atoms: _358  and  _359
REMARK  147  A    between atoms: _359  and  _360
REMARK  148  A    between atoms: _360  and  _361
REMARK  149  A    between atoms: _370  and  _372
REMARK  150  A    between atoms: _372  and  _373
REMARK  151  A    between atoms: _372  and  _375
REMARK  152  A    between atoms: _375  and  _376
REMARK  153  A    between atoms: _381  and  _383
REMARK  154  A    between atoms: _383  and  _384
REMARK  155  A    between atoms: _383  and  _386
REMARK  156  A    between atoms: _388  and  _390
REMARK  157  A    between atoms: _390  and  _391
REMARK  158  A    between atoms: _390  and  _393
REMARK  159  A    between atoms: _393  and  _394
REMARK  160  A    between atoms: _394  and  _395
REMARK  161  A    between atoms: _397  and  _399
REMARK  162  A    between atoms: _399  and  _400
REMARK  163  A    between atoms: _399  and  _402
REMARK  164  A    between atoms: _402  and  _403
REMARK  165  A    between atoms: _406  and  _408
REMARK  166  A    between atoms: _408  and  _409
REMARK  167  A    between atoms: _408  and  _411
REMARK  168  A    between atoms: _411  and  _412
REMARK  169  A    between atoms: _415  and  _417
REMARK  170  A    between atoms: _417  and  _418
REMARK  171  A    between atoms: _417  and  _420
REMARK  172  A    between atoms: _420  and  _421
REMARK  173  A    between atoms: _421  and  _422
REMARK  174  A    between atoms: _422  and  _423
REMARK  175  A    between atoms: _423  and  _424
REMARK  176  A    between atoms: _428  and  _430
REMARK  177  A    between atoms: _430  and  _431
REMARK  178  A    between atoms: _430  and  _433
REMARK  179  A    between atoms: _436  and  _438
REMARK  180  A    between atoms: _438  and  _439
REMARK  181  A    between atoms: _442  and  _444
REMARK  182  A    between atoms: _444  and  _445
REMARK  183  A    between atoms: _444  and  _447
REMARK  184  A    between atoms: _447  and  _448
REMARK  185  A    between atoms: _451  and  _453
REMARK  186  A    between atoms: _453  and  _454
REMARK  187  A    between atoms: _453  and  _456
REMARK  188  A    between atoms: _456  and  _457
REMARK  189  A    between atoms: _463  and  _465
REMARK  190  A    between atoms: _465  and  _466
REMARK  191  A    between atoms: _465  and  _468
REMARK  192  A    between atoms: _468  and  _469
REMARK  193  A    between atoms: _472  and  _474
REMARK  194  A    between atoms: _474  and  _475
REMARK  195  A    between atoms: _478  and  _480
REMARK  196  A    between atoms: _480  and  _481
REMARK  197  A    between atoms: _480  and  _483
REMARK  198  A    between atoms: _483  and  _484
REMARK  199  A    between atoms: _484  and  _485
REMARK  200  A    between atoms: _485  and  _486
REMARK  201  A    between atoms: _495  and  _497
REMARK  202  A    between atoms: _497  and  _498
REMARK  203  A    between atoms: _497  and  _500
REMARK  204  A    between atoms: _500  and  _501
REMARK  205  A    between atoms: _504  and  _506
REMARK  206  A    between atoms: _506  and  _507
REMARK  207  A    between atoms: _506  and  _509
REMARK  208  A    between atoms: _509  and  _510
REMARK  209  A    between atoms: _510  and  _511
REMARK  210  A    between atoms: _513  and  _515
REMARK  211  A    between atoms: _515  and  _516
REMARK  212  A    between atoms: _515  and  _518
REMARK  213  A    between atoms: _518  and  _519
REMARK  214  A    between atoms: _524  and  _525
REMARK  215  A    between atoms: _527  and  _529
REMARK  216  A    between atoms: _529  and  _530
REMARK  217  A    between atoms: _529  and  _532
REMARK  218  A    between atoms: _532  and  _533
REMARK  219  A    between atoms: _536  and  _538
REMARK  220  A    between atoms: _538  and  _539
REMARK  221  A    between atoms: _538  and  _541
REMARK  222  A    between atoms: _541  and  _542
REMARK  223  A    between atoms: _542  and  _543
REMARK  224  A    between atoms: _543  and  _544
REMARK  225  A    between atoms: _544  and  _545
REMARK  226  A    between atoms: _549  and  _551
REMARK  227  A    between atoms: _551  and  _552
REMARK  228  A    between atoms: _551  and  _554
REMARK  229  A    between atoms: _554  and  _555
REMARK  230  A    between atoms: _560  and  _561
REMARK  231  A    between atoms: _563  and  _565
REMARK  232  A    between atoms: _565  and  _566
REMARK  233  A    between atoms: _565  and  _568
REMARK  234  A    between atoms: _568  and  _569
REMARK  235  A    between atoms: _574  and  _575
REMARK                            x       y       z     vdW  Elec       q    Type
REMARK                         _______ _______ _______ _____ _____    ______ ____
ROOT
ATOM      1  C   TYR A   1      31.119  18.759   0.988  0.00  0.00    +0.239 C 
ATOM      2  O   TYR A   1      31.216  19.356   2.059  0.00  0.00    -0.274 OA
ATOM      3  N   TYR A   2      31.881  17.719   0.667  0.00  0.00    -0.298 N 
ATOM      4  H   TYR A   2      31.705  17.224  -0.231  0.00  0.00    +0.150 HD
ENDROOT
BRANCH   1   5
ATOM      5  CA  TYR A   1      30.108  19.198  -0.067  0.00  0.00    +0.149 C 
BRANCH   5   6
ATOM      6  N   TYR A   1      29.840  18.197  -1.092  0.00  0.00    -0.238 NA
ATOM      7  H   TYR A   1      29.284  17.352  -0.851  0.00  0.00    +0.142 HD
ENDBRANCH   5   6
BRANCH   5   8
ATOM      8  CB  TYR A   1      28.786  19.626   0.577  0.00  0.00    +0.053 C 
BRANCH   8   9
ATOM      9  CG  TYR A   1      27.918  20.357  -0.416  0.00  0.00    -0.020 A 
ATOM     10  CD2 TYR A   1      28.224  21.658  -0.793  0.00  0.00    -0.001 A 
ATOM     11  CE2 TYR A   1      27.518  22.303  -1.784  0.00  0.00    +0.036 A 
ATOM     12  CZ  TYR A   1      26.484  21.653  -2.419  0.00  0.00    +0.134 A 
ATOM     13  CE1 TYR A   1      26.146  20.361  -2.061  0.00  0.00    +0.036 A 
ATOM     14  CD1 TYR A   1      26.863  19.719  -1.058  0.00  0.00    -0.001 A 
BRANCH  12  15
ATOM     15  OH  TYR A   1      25.808  22.304  -3.427  0.00  0.00    -0.506 OA
ATOM     16  HH  TYR A   1      25.906  21.795  -4.271  0.00  0.00    +0.292 HD
ENDBRANCH  12  15
ENDBRANCH   8   9
ENDBRANCH   5   8
ENDBRANCH   1   5
BRANCH   3  17
ATOM     17  CA  TYR A   2      32.956  17.249   1.532  0.00  0.00    +0.141 C 
BRANCH  17  18
ATOM     18  C   TYR A   2      34.286  17.281   0.787  0.00  0.00    +0.227 C 
ATOM     19  O   TYR A   2      34.389  16.774  -0.331  0.00  0.00    -0.286 OA
ENDBRANCH  17  18
BRANCH  17  20
ATOM     20  CB  TYR A   2      32.654  15.829   2.009  0.00  0.00    +0.054 C 
BRANCH  20  21
ATOM     21  CG  TYR A   2      31.387  15.746   2.829  0.00  0.00    -0.020 A 
ATOM     22  CD2 TYR A   2      31.442  15.678   4.213  0.00  0.00    -0.001 A 
ATOM     23  CE2 TYR A   2      30.291  15.639   4.973  0.00  0.00    +0.036 A 
ATOM     24  CZ  TYR A   2      29.060  15.667   4.348  0.00  0.00    +0.134 A 
ATOM     25  CE1 TYR A   2      28.975  15.731   2.972  0.00  0.00    +0.036 A 
ATOM     26  CD1 TYR A   2      30.137  15.770   2.220  0.00  0.00    -0.001 A 
BRANCH  24  27
ATOM     27  OH  TYR A   2      27.916  15.626   5.110  0.00  0.00    -0.506 OA
ATOM     28  HH  TYR A   2      27.899  16.405   5.720  0.00  0.00    +0.292 HD
ENDBRANCH  24  27
ENDBRANCH  20  21
ENDBRANCH  17  20
ENDBRANCH   3  17
TORSDOF 10
REMARK  Name = ../refined-set-2016/3zze/3zze_pocket.pdb
REMARK  235 active torsions:
REMARK  status: ('A' for Active; 'I' for Inactive)
REMARK    1  A    between atoms: _1  and  _3
REMARK    2  A    between atoms: _3  and  _4
REMARK    3  A    between atoms: _3  and  _6
REMARK    4  A    between atoms: _9  and  _11
REMARK    5  A    between atoms: _11  and  _12
REMARK    6  A    between atoms: _11  and  _14
REMARK    7  A    between atoms: _14  and  _15
REMARK    8  A    between atoms: _18  and  _20
REMARK    9  A    between atoms: _20  and  _21
REMARK   10  A    between atoms: _23  and  _25
REMARK   11  A    between atoms: _25  and  _26
REMARK   12  A    between atoms: _25  and  _28
REMARK   13  A    between atoms: _28  and  _29
REMARK   14  A    between atoms: _29  and  _30
REMARK   15  A    between atoms: _30  and  _31
REMARK   16  A    between atoms: _40  and  _42
REMARK   17  A    between atoms: _42  and  _43
REMARK   18  A    between atoms: _45  and  _47
REMARK   19  A    between atoms: _47  and  _48
REMARK   20  A    between atoms: _50  and  _52
REMARK   21  A    between atoms: _52  and  _53
REMARK   22  A    between atoms: _52  and  _55
REMARK   23  A    between atoms: _57  and  _59
REMARK   24  A    between atoms: _59  and  _60
REMARK   25  A    between atoms: _59  and  _62
REMARK   26  A    between atoms: _65  and  _67
REMARK   27  A    between atoms: _67  and  _68
REMARK   28  A    between atoms: _67  and  _70
REMARK   29  A    between atoms: _70  and  _71
REMARK   30  A    between atoms: _76  and  _77
REMARK   31  A    between atoms: _79  and  _81
REMARK   32  A    between atoms: _81  and  _82
REMARK   33  A    between atoms: _81  and  _84
REMARK   34  A    between atoms: _84  and  _85
REMARK   35  A    between atoms: _90  and  _92
REMARK   36  A    between atoms: _92  and  _93
REMARK   37  A    between atoms: _95  and  _97
REMARK   38  A    between atoms: _97  and  _98
REMARK   39  A    between atoms: _97  and  _100
REMARK   40  A    between atoms: _100  and  _101
REMARK   41  A    between atoms: _106  and  _108
REMARK   42  A    between atoms: _108  and  _109
REMARK   43  A    between atoms: _108  and  _111
REMARK   44  A    between atoms: _113  and  _115
REMARK   45  A    between atoms: _115  and  _116
REMARK   46  A    between atoms: _119  and  _121
REMARK   47  A    between atoms: _121  and  _122
REMARK   48  A    between atoms: _121  and  _124
REMARK   49  A    between atoms: _127  and  _129
REMARK   50  A    between atoms: _129  and  _130
REMARK   51  A    between atoms: _129  and  _132
REMARK   52  A    between atoms: _132  and  _133
REMARK   53  A    between atoms: _133  and  _134
REMARK   54  A    between atoms: _134  and  _135
REMARK   55  A    between atoms: _135  and  _136
REMARK   56  A    between atoms: _140  and  _142
REMARK   57  A    between atoms: _142  and  _143
REMARK   58  A    between atoms: _142  and  _145
REMARK   59  A    between atoms: _145  and  _146
REMARK   60  A    between atoms: _148  and  _150
REMARK   61  A    between atoms: _150  and  _151
REMARK   62  A    between atoms: _150  and  _153
REMARK   63  A    between atoms: _153  and  _154
REMARK   64  A    between atoms: _154  and  _155
REMARK   65  A    between atoms: _157  and  _159
REMARK   66  A    between atoms: _159  and  _160
REMARK   67  A    between atoms: _159  and  _162
REMARK   68  A    between atoms: _162  and  _163
REMARK   69  A    between atoms: _166  and  _168
REMARK   70  A    between atoms: _168  and  _169
REMARK   71  A    between atoms: _168  and  _171
REMARK   72  A    between atoms: _171  and  _172
REMARK   73  A    between atoms: _174  and  _176
REMARK   74  A    between atoms: _176  and  _177
REMARK   75  A    between atoms: _176  and  _179
REMARK   76  A    between atoms: _182  and  _184
REMARK   77  A    between atoms: _184  and  _185
REMARK   78  A    between atoms: _184  and  _187
REMARK   79  A    between atoms: _190  and  _192
REMARK   80  A    between atoms: _192  and  _193
REMARK   81  A    between atoms: _192  and  _195
REMARK   82  A    between atoms: _195  and  _196
REMARK   83  A    between atoms: _200  and  _201
REMARK   84  A    between atoms: _206  and  _208
REMARK   85  A    between atoms: _208  and  _209
REMARK   86  A    between atoms: _208  and  _211
REMARK   87  A    between atoms: _211  and  _212
REMARK   88  A    between atoms: _217  and  _218
REMARK   89  A    between atoms: _220  and  _222
REMARK   90  A    between atoms: _222  and  _223
REMARK   91  A    between atoms: _222  and  _225
REMARK   92  A    between atoms: _225  and  _226
REMARK   93  A    between atoms: _226  and  _227
REMARK   94  A    between atoms: _229  and  _231
REMARK   95  A    between atoms: _231  and  _232
REMARK   96  A    between atoms: _231  and  _234
REMARK   97  A    between atoms: _234  and  _235
REMARK   98  A    between atoms: _235  and  _236
REMARK   99  A    between atoms: _236  and  _237
REMARK  100  A    between atoms: _237  and  _238
REMARK  101  A    between atoms: _242  and  _244
REMARK  102  A    between atoms: _244  and  _245
REMARK  103  A    between atoms: _244  and  _247
REMARK  104  A    between atoms: _247  and  _248
REMARK  105  A    between atoms: _253  and  _255
REMARK  106  A    between atoms: _255  and  _256
REMARK  107  A    between atoms: _258  and  _260
REMARK  108  A    between atoms: _260  and  _261
REMARK  109  A    between atoms: _260  and  _263
REMARK  110  A    between atoms: _263  and  _264
REMARK  111  A    between atoms: _267  and  _269
REMARK  112  A    between atoms: _269  and  _270
REMARK  113  A    between atoms: _269  and  _272
REMARK  114  A    between atoms: _272  and  _273
REMARK  115  A    between atoms: _276  and  _278
REMARK  116  A    between atoms: _278  and  _279
REMARK  117  A    between atoms: _278  and  _281
REMARK  118  A    between atoms: _281  and  _282
REMARK  119  A    between atoms: _282  and  _283
REMARK  120  A    between atoms: _283  and  _284
REMARK  121  A    between atoms: _293  and  _295
REMARK  122  A    between atoms: _295  and  _296
REMARK  123  A    between atoms: _295  and  _298
REMARK  124  A    between atoms: _298  and  _299
REMARK  125  A    between atoms: _304  and  _306
REMARK  126  A    between atoms: _306  and  _307
REMARK  127  A    between atoms: _306  and  _309
REMARK  128  A    between atoms: _309  and  _310
REMARK  129  A    between atoms: _310  and  _311
REMARK  130  A    between atoms: _311  and  _312
REMARK  131  A    between atoms: _321  and  _323
REMARK  132  A    between atoms: _323  and  _324
REMARK  133  A    between atoms: _323  and  _326
REMARK  134  A    between atoms: _326  and  _327
REMARK  135  A    between atoms: _332  and  _334
REMARK  136  A    between atoms: _334  and  _335
REMARK  137  A    between atoms: _334  and  _337
REMARK  138  A    between atoms: _337  and  _338
REMARK  139  A    between atoms: _341  and  _343
REMARK  140  A    between atoms: _343  and  _344
REMARK  141  A    between atoms: _347  and  _349
REMARK  142  A    between atoms: _349  and  _350
REMARK  143  A    between atoms: _353  and  _355
REMARK  144  A    between atoms: _355  and  _356
REMARK  145  A    between atoms: _355  and  _358
REMARK  146  A    between atoms: _358  and  _359
REMARK  147  A    between atoms: _359  and  _360
REMARK  148  A    between atoms: _360  and  _361
REMARK  149  A    between atoms: _370  and  _372
REMARK  150  A    between atoms: _372  and  _373
REMARK  151  A    between atoms: _372  and  _375
REMARK  152  A    between atoms: _375  and  _376
REMARK  153  A    between atoms: _381  and  _383
REMARK  154  A    between atoms: _383  and  _384
REMARK  155  A    between atoms: _383  and  _386
REMARK  156  A    between atoms: _388  and  _390
REMARK  157  A    between atoms: _390  and  _391
REMARK  158  A    between atoms: _390  and  _393
REMARK  159  A    between atoms: _393  and  _394
REMARK  160  A    between atoms: _394  and  _395
REMARK  161  A    between atoms: _397  and  _399
REMARK  162  A    between atoms: _399  and  _400
REMARK  163  A    between atoms: _399  and  _402
REMARK  164  A    between atoms: _402  and  _403
REMARK  165  A    between atoms: _406  and  _408
REMARK  166  A    between atoms: _408  and  _409
REMARK  167  A    between atoms: _408  and  _411
REMARK  168  A    between atoms: _411  and  _412
REMARK  169  A    between atoms: _415  and  _417
REMARK  170  A    between atoms: _417  and  _418
REMARK  171  A    between atoms: _417  and  _420
REMARK  172  A    between atoms: _420  and  _421
REMARK  173  A    between atoms: _421  and  _422
REMARK  174  A    between atoms: _422  and  _423
REMARK  175  A    between atoms: _423  and  _424
REMARK  176  A    between atoms: _428  and  _430
REMARK  177  A    between atoms: _430  and  _431
REMARK  178  A    between atoms: _430  and  _433
REMARK  179  A    between atoms: _436  and  _438
REMARK  180  A    between atoms: _438  and  _439
REMARK  181  A    between atoms: _442  and  _444
REMARK  182  A    between atoms: _444  and  _445
REMARK  183  A    between atoms: _444  and  _447
REMARK  184  A    between atoms: _447  and  _448
REMARK  185  A    between atoms: _451  and  _453
REMARK  186  A    between atoms: _453  and  _454
REMARK  187  A    between atoms: _453  and  _456
REMARK  188  A    between atoms: _456  and  _457
REMARK  189  A    between atoms: _463  and  _465
REMARK  190  A    between atoms: _465  and  _466
REMARK  191  A    between atoms: _465  and  _468
REMARK  192  A    between atoms: _468  and  _469
REMARK  193  A    between atoms: _472  and  _474
REMARK  194  A    between atoms: _474  and  _475
REMARK  195  A    between atoms: _478  and  _480
REMARK  196  A    between atoms: _480  and  _481
REMARK  197  A    between atoms: _480  and  _483
REMARK  198  A    between atoms: _483  and  _484
REMARK  199  A    between atoms: _484  and  _485
REMARK  200  A    between atoms: _485  and  _486
REMARK  201  A    between atoms: _495  and  _497
REMARK  202  A    between atoms: _497  and  _498
REMARK  203  A    between atoms: _497  and  _500
REMARK  204  A    between atoms: _500  and  _501
REMARK  205  A    between atoms: _504  and  _506
REMARK  206  A    between atoms: _506  and  _507
REMARK  207  A    between atoms: _506  and  _509
REMARK  208  A    between atoms: _509  and  _510
REMARK  209  A    between atoms: _510  and  _511
REMARK  210  A    between atoms: _513  and  _515
REMARK  211  A    between atoms: _515  and  _516
REMARK  212  A    between atoms: _515  and  _518
REMARK  213  A    between atoms: _518  and  _519
REMARK  214  A    between atoms: _524  and  _525
REMARK  215  A    between atoms: _527  and  _529
REMARK  216  A    between atoms: _529  and  _530
REMARK  217  A    between atoms: _529  and  _532
REMARK  218  A    between atoms: _532  and  _533
REMARK  219  A    between atoms: _536  and  _538
REMARK  220  A    between atoms: _538  and  _539
REMARK  221  A    between atoms: _538  and  _541
REMARK  222  A    between atoms: _541  and  _542
REMARK  223  A    between atoms: _542  and  _543
REMARK  224  A    between atoms: _543  and  _544
REMARK  225  A    between atoms: _544  and  _545
REMARK  226  A    between atoms: _549  and  _551
REMARK  227  A    between atoms: _551  and  _552
REMARK  228  A    between atoms: _551  and  _554
REMARK  229  A    between atoms: _554  and  _555
REMARK  230  A    between atoms: _560  and  _561
REMARK  231  A    between atoms: _563  and  _565
REMARK  232  A    between atoms: _565  and  _566
REMARK  233  A    between atoms: _565  and  _568
REMARK  234  A    between atoms: _568  and  _569
REMARK  235  A    between atoms: _574  and  _575
REMARK                            x       y       z     vdW  Elec       q    Type
REMARK                         _______ _______ _______ _____ _____    ______ ____
ROOT
ATOM      1  O   HOH     1      11.715  11.346  -0.016  0.00  0.00    +0.000 OA
ENDROOT
TORSDOF 0
REMARK  Name = ../refined-set-2016/3zze/3zze_pocket.pdb
REMARK  235 active torsions:
REMARK  status: ('A' for Active; 'I' for Inactive)
REMARK    1  A    between atoms: _1  and  _3
REMARK    2  A    between atoms: _3  and  _4
REMARK    3  A    between atoms: _3  and  _6
REMARK    4  A    between atoms: _9  and  _11
REMARK    5  A    between atoms: _11  and  _12
REMARK    6  A    between atoms: _11  and  _14
REMARK    7  A    between atoms: _14  and  _15
REMARK    8  A    between atoms: _18  and  _20
REMARK    9  A    between atoms: _20  and  _21
REMARK   10  A    between atoms: _23  and  _25
REMARK   11  A    between atoms: _25  and  _26
REMARK   12  A    between atoms: _25  and  _28
REMARK   13  A    between atoms: _28  and  _29
REMARK   14  A    between atoms: _29  and  _30
REMARK   15  A    between atoms: _30  and  _31
REMARK   16  A    between atoms: _40  and  _42
REMARK   17  A    between atoms: _42  and  _43
REMARK   18  A    between atoms: _45  and  _47
REMARK   19  A    between atoms: _47  and  _48
REMARK   20  A    between atoms: _50  and  _52
REMARK   21  A    between atoms: _52  and  _53
REMARK   22  A    between atoms: _52  and  _55
REMARK   23  A    between atoms: _57  and  _59
REMARK   24  A    between atoms: _59  and  _60
REMARK   25  A    between atoms: _59  and  _62
REMARK   26  A    between atoms: _65  and  _67
REMARK   27  A    between atoms: _67  and  _68
REMARK   28  A    between atoms: _67  and  _70
REMARK   29  A    between atoms: _70  and  _71
REMARK   30  A    between atoms: _76  and  _77
REMARK   31  A    between atoms: _79  and  _81
REMARK   32  A    between atoms: _81  and  _82
REMARK   33  A    between atoms: _81  and  _84
REMARK   34  A    between atoms: _84  and  _85
REMARK   35  A    between atoms: _90  and  _92
REMARK   36  A    between atoms: _92  and  _93
REMARK   37  A    between atoms: _95  and  _97
REMARK   38  A    between atoms: _97  and  _98
REMARK   39  A    between atoms: _97  and  _100
REMARK   40  A    between atoms: _100  and  _101
REMARK   41  A    between atoms: _106  and  _108
REMARK   42  A    between atoms: _108  and  _109
REMARK   43  A    between atoms: _108  and  _111
REMARK   44  A    between atoms: _113  and  _115
REMARK   45  A    between atoms: _115  and  _116
REMARK   46  A    between atoms: _119  and  _121
REMARK   47  A    between atoms: _121  and  _122
REMARK   48  A    between atoms: _121  and  _124
REMARK   49  A    between atoms: _127  and  _129
REMARK   50  A    between atoms: _129  and  _130
REMARK   51  A    between atoms: _129  and  _132
REMARK   52  A    between atoms: _132  and  _133
REMARK   53  A    between atoms: _133  and  _134
REMARK   54  A    between atoms: _134  and  _135
REMARK   55  A    between atoms: _135  and  _136
REMARK   56  A    between atoms: _140  and  _142
REMARK   57  A    between atoms: _142  and  _143
REMARK   58  A    between atoms: _142  and  _145
REMARK   59  A    between atoms: _145  and  _146
REMARK   60  A    between atoms: _148  and  _150
REMARK   61  A    between atoms: _150  and  _151
REMARK   62  A    between atoms: _150  and  _153
REMARK   63  A    between atoms: _153  and  _154
REMARK   64  A    between atoms: _154  and  _155
REMARK   65  A    between atoms: _157  and  _159
REMARK   66  A    between atoms: _159  and  _160
REMARK   67  A    between atoms: _159  and  _162
REMARK   68  A    between atoms: _162  and  _163
REMARK   69  A    between atoms: _166  and  _168
REMARK   70  A    between atoms: _168  and  _169
REMARK   71  A    between atoms: _168  and  _171
REMARK   72  A    between atoms: _171  and  _172
REMARK   73  A    between atoms: _174  and  _176
REMARK   74  A    between atoms: _176  and  _177
REMARK   75  A    between atoms: _176  and  _179
REMARK   76  A    between atoms: _182  and  _184
REMARK   77  A    between atoms: _184  and  _185
REMARK   78  A    between atoms: _184  and  _187
REMARK   79  A    between atoms: _190  and  _192
REMARK   80  A    between atoms: _192  and  _193
REMARK   81  A    between atoms: _192  and  _195
REMARK   82  A    between atoms: _195  and  _196
REMARK   83  A    between atoms: _200  and  _201
REMARK   84  A    between atoms: _206  and  _208
REMARK   85  A    between atoms: _208  and  _209
REMARK   86  A    between atoms: _208  and  _211
REMARK   87  A    between atoms: _211  and  _212
REMARK   88  A    between atoms: _217  and  _218
REMARK   89  A    between atoms: _220  and  _222
REMARK   90  A    between atoms: _222  and  _223
REMARK   91  A    between atoms: _222  and  _225
REMARK   92  A    between atoms: _225  and  _226
REMARK   93  A    between atoms: _226  and  _227
REMARK   94  A    between atoms: _229  and  _231
REMARK   95  A    between atoms: _231  and  _232
REMARK   96  A    between atoms: _231  and  _234
REMARK   97  A    between atoms: _234  and  _235
REMARK   98  A    between atoms: _235  and  _236
REMARK   99  A    between atoms: _236  and  _237
REMARK  100  A    between atoms: _237  and  _238
REMARK  101  A    between atoms: _242  and  _244
REMARK  102  A    between atoms: _244  and  _245
REMARK  103  A    between atoms: _244  and  _247
REMARK  104  A    between atoms: _247  and  _248
REMARK  105  A    between atoms: _253  and  _255
REMARK  106  A    between atoms: _255  and  _256
REMARK  107  A    between atoms: _258  and  _260
REMARK  108  A    between atoms: _260  and  _261
REMARK  109  A    between atoms: _260  and  _263
REMARK  110  A    between atoms: _263  and  _264
REMARK  111  A    between atoms: _267  and  _269
REMARK  112  A    between atoms: _269  and  _270
REMARK  113  A    between atoms: _269  and  _272
REMARK  114  A    between atoms: _272  and  _273
REMARK  115  A    between atoms: _276  and  _278
REMARK  116  A    between atoms: _278  and  _279
REMARK  117  A    between atoms: _278  and  _281
REMARK  118  A    between atoms: _281  and  _282
REMARK  119  A    between atoms: _282  and  _283
REMARK  120  A    between atoms: _283  and  _284
REMARK  121  A    between atoms: _293  and  _295
REMARK  122  A    between atoms: _295  and  _296
REMARK  123  A    between atoms: _295  and  _298
REMARK  124  A    between atoms: _298  and  _299
REMARK  125  A    between atoms: _304  and  _306
REMARK  126  A    between atoms: _306  and  _307
REMARK  127  A    between atoms: _306  and  _309
REMARK  128  A    between atoms: _309  and  _310
REMARK  129  A    between atoms: _310  and  _311
REMARK  130  A    between atoms: _311  and  _312
REMARK  131  A    between atoms: _321  and  _323
REMARK  132  A    between atoms: _323  and  _324
REMARK  133  A    between atoms: _323  and  _326
REMARK  134  A    between atoms: _326  and  _327
REMARK  135  A    between atoms: _332  and  _334
REMARK  136  A    between atoms: _334  and  _335
REMARK  137  A    between atoms: _334  and  _337
REMARK  138  A    between atoms: _337  and  _338
REMARK  139  A    between atoms: _341  and  _343
REMARK  140  A    between atoms: _343  and  _344
REMARK  141  A    between atoms: _347  and  _349
REMARK  142  A    between atoms: _349  and  _350
REMARK  143  A    between atoms: _353  and  _355
REMARK  144  A    between atoms: _355  and  _356
REMARK  145  A    between atoms: _355  and  _358
REMARK  146  A    between atoms: _358  and  _359
REMARK  147  A    between atoms: _359  and  _360
REMARK  148  A    between atoms: _360  and  _361
REMARK  149  A    between atoms: _370  and  _372
REMARK  150  A    between atoms: _372  and  _373
REMARK  151  A    between atoms: _372  and  _375
REMARK  152  A    between atoms: _375  and  _376
REMARK  153  A    between atoms: _381  and  _383
REMARK  154  A    between atoms: _383  and  _384
REMARK  155  A    between atoms: _383  and  _386
REMARK  156  A    between atoms: _388  and  _390
REMARK  157  A    between atoms: _390  and  _391
REMARK  158  A    between atoms: _390  and  _393
REMARK  159  A    between atoms: _393  and  _394
REMARK  160  A    between atoms: _394  and  _395
REMARK  161  A    between atoms: _397  and  _399
REMARK  162  A    between atoms: _399  and  _400
REMARK  163  A    between atoms: _399  and  _402
REMARK  164  A    between atoms: _402  and  _403
REMARK  165  A    between atoms: _406  and  _408
REMARK  166  A    between atoms: _408  and  _409
REMARK  167  A    between atoms: _408  and  _411
REMARK  168  A    between atoms: _411  and  _412
REMARK  169  A    between atoms: _415  and  _417
REMARK  170  A    between atoms: _417  and  _418
REMARK  171  A    between atoms: _417  and  _420
REMARK  172  A    between atoms: _420  and  _421
REMARK  173  A    between atoms: _421  and  _422
REMARK  174  A    between atoms: _422  and  _423
REMARK  175  A    between atoms: _423  and  _424
REMARK  176  A    between atoms: _428  and  _430
REMARK  177  A    between atoms: _430  and  _431
REMARK  178  A    between atoms: _430  and  _433
REMARK  179  A    between atoms: _436  and  _438
REMARK  180  A    between atoms: _438  and  _439
REMARK  181  A    between atoms: _442  and  _444
REMARK  182  A    between atoms: _444  and  _445
REMARK  183  A    between atoms: _444  and  _447
REMARK  184  A    between atoms: _447  and  _448
REMARK  185  A    between atoms: _451  and  _453
REMARK  186  A    between atoms: _453  and  _454
REMARK  187  A    between atoms: _453  and  _456
REMARK  188  A    between atoms: _456  and  _457
REMARK  189  A    between atoms: _463  and  _465
REMARK  190  A    between atoms: _465  and  _466
REMARK  191  A    between atoms: _465  and  _468
REMARK  192  A    between atoms: _468  and  _469
REMARK  193  A    between atoms: _472  and  _474
REMARK  194  A    between atoms: _474  and  _475
REMARK  195  A    between atoms: _478  and  _480
REMARK  196  A    between atoms: _480  and  _481
REMARK  197  A    between atoms: _480  and  _483
REMARK  198  A    between atoms: _483  and  _484
REMARK  199  A    between atoms: _484  and  _485
REMARK  200  A    between atoms: _485  and  _486
REMARK  201  A    between atoms: _495  and  _497
REMARK  202  A    between atoms: _497  and  _498
REMARK  203  A    between atoms: _497  and  _500
REMARK  204  A    between atoms: _500  and  _501
REMARK  205  A    between atoms: _504  and  _506
REMARK  206  A    between atoms: _506  and  _507
REMARK  207  A    between atoms: _506  and  _509
REMARK  208  A    between atoms: _509  and  _510
REMARK  209  A    between atoms: _510  and  _511
REMARK  210  A    between atoms: _513  and  _515
REMARK  211  A    between atoms: _515  and  _516
REMARK  212  A    between atoms: _515  and  _518
REMARK  213  A    between atoms: _518  and  _519
REMARK  214  A    between atoms: _524  and  _525
REMARK  215  A    between atoms: _527  and  _529
REMARK  216  A    between atoms: _529  and  _530
REMARK  217  A    between atoms: _529  and  _532
REMARK  218  A    between atoms: _532  and  _533
REMARK  219  A    between atoms: _536  and  _538
REMARK  220  A    between atoms: _538  and  _539
REMARK  221  A    between atoms: _538  and  _541
REMARK  222  A    between atoms: _541  and  _542
REMARK  223  A    between atoms: _542  and  _543
REMARK  224  A    between atoms: _543  and  _544
REMARK  225  A    between atoms: _544  and  _545
REMARK  226  A    between atoms: _549  and  _551
REMARK  227  A    between atoms: _551  and  _552
REMARK  228  A    between atoms: _551  and  _554
REMARK  229  A    between atoms: _554  and  _555
REMARK  230  A    between atoms: _560  and  _561
REMARK  231  A    between atoms: _563  and  _565
REMARK  232  A    between atoms: _565  and  _566
REMARK  233  A    between atoms: _565  and  _568
REMARK  234  A    between atoms: _568  and  _569
REMARK  235  A    between atoms: _574  and  _575
REMARK                            x       y       z     vdW  Elec       q    Type
REMARK                         _______ _______ _______ _____ _____    ______ ____
ROOT
ATOM      1  O   HOH     1      15.142  11.057   1.941  0.00  0.00    +0.000 OA
ENDROOT
TORSDOF 0
REMARK  Name = ../refined-set-2016/3zze/3zze_pocket.pdb
REMARK  235 active torsions:
REMARK  status: ('A' for Active; 'I' for Inactive)
REMARK    1  A    between atoms: _1  and  _3
REMARK    2  A    between atoms: _3  and  _4
REMARK    3  A    between atoms: _3  and  _6
REMARK    4  A    between atoms: _9  and  _11
REMARK    5  A    between atoms: _11  and  _12
REMARK    6  A    between atoms: _11  and  _14
REMARK    7  A    between atoms: _14  and  _15
REMARK    8  A    between atoms: _18  and  _20
REMARK    9  A    between atoms: _20  and  _21
REMARK   10  A    between atoms: _23  and  _25
REMARK   11  A    between atoms: _25  and  _26
REMARK   12  A    between atoms: _25  and  _28
REMARK   13  A    between atoms: _28  and  _29
REMARK   14  A    between atoms: _29  and  _30
REMARK   15  A    between atoms: _30  and  _31
REMARK   16  A    between atoms: _40  and  _42
REMARK   17  A    between atoms: _42  and  _43
REMARK   18  A    between atoms: _45  and  _47
REMARK   19  A    between atoms: _47  and  _48
REMARK   20  A    between atoms: _50  and  _52
REMARK   21  A    between atoms: _52  and  _53
REMARK   22  A    between atoms: _52  and  _55
REMARK   23  A    between atoms: _57  and  _59
REMARK   24  A    between atoms: _59  and  _60
REMARK   25  A    between atoms: _59  and  _62
REMARK   26  A    between atoms: _65  and  _67
REMARK   27  A    between atoms: _67  and  _68
REMARK   28  A    between atoms: _67  and  _70
REMARK   29  A    between atoms: _70  and  _71
REMARK   30  A    between atoms: _76  and  _77
REMARK   31  A    between atoms: _79  and  _81
REMARK   32  A    between atoms: _81  and  _82
REMARK   33  A    between atoms: _81  and  _84
REMARK   34  A    between atoms: _84  and  _85
REMARK   35  A    between atoms: _90  and  _92
REMARK   36  A    between atoms: _92  and  _93
REMARK   37  A    between atoms: _95  and  _97
REMARK   38  A    between atoms: _97  and  _98
REMARK   39  A    between atoms: _97  and  _100
REMARK   40  A    between atoms: _100  and  _101
REMARK   41  A    between atoms: _106  and  _108
REMARK   42  A    between atoms: _108  and  _109
REMARK   43  A    between atoms: _108  and  _111
REMARK   44  A    between atoms: _113  and  _115
REMARK   45  A    between atoms: _115  and  _116
REMARK   46  A    between atoms: _119  and  _121
REMARK   47  A    between atoms: _121  and  _122
REMARK   48  A    between atoms: _121  and  _124
REMARK   49  A    between atoms: _127  and  _129
REMARK   50  A    between atoms: _129  and  _130
REMARK   51  A    between atoms: _129  and  _132
REMARK   52  A    between atoms: _132  and  _133
REMARK   53  A    between atoms: _133  and  _134
REMARK   54  A    between atoms: _134  and  _135
REMARK   55  A    between atoms: _135  and  _136
REMARK   56  A    between atoms: _140  and  _142
REMARK   57  A    between atoms: _142  and  _143
REMARK   58  A    between atoms: _142  and  _145
REMARK   59  A    between atoms: _145  and  _146
REMARK   60  A    between atoms: _148  and  _150
REMARK   61  A    between atoms: _150  and  _151
REMARK   62  A    between atoms: _150  and  _153
REMARK   63  A    between atoms: _153  and  _154
REMARK   64  A    between atoms: _154  and  _155
REMARK   65  A    between atoms: _157  and  _159
REMARK   66  A    between atoms: _159  and  _160
REMARK   67  A    between atoms: _159  and  _162
REMARK   68  A    between atoms: _162  and  _163
REMARK   69  A    between atoms: _166  and  _168
REMARK   70  A    between atoms: _168  and  _169
REMARK   71  A    between atoms: _168  and  _171
REMARK   72  A    between atoms: _171  and  _172
REMARK   73  A    between atoms: _174  and  _176
REMARK   74  A    between atoms: _176  and  _177
REMARK   75  A    between atoms: _176  and  _179
REMARK   76  A    between atoms: _182  and  _184
REMARK   77  A    between atoms: _184  and  _185
REMARK   78  A    between atoms: _184  and  _187
REMARK   79  A    between atoms: _190  and  _192
REMARK   80  A    between atoms: _192  and  _193
REMARK   81  A    between atoms: _192  and  _195
REMARK   82  A    between atoms: _195  and  _196
REMARK   83  A    between atoms: _200  and  _201
REMARK   84  A    between atoms: _206  and  _208
REMARK   85  A    between atoms: _208  and  _209
REMARK   86  A    between atoms: _208  and  _211
REMARK   87  A    between atoms: _211  and  _212
REMARK   88  A    between atoms: _217  and  _218
REMARK   89  A    between atoms: _220  and  _222
REMARK   90  A    between atoms: _222  and  _223
REMARK   91  A    between atoms: _222  and  _225
REMARK   92  A    between atoms: _225  and  _226
REMARK   93  A    between atoms: _226  and  _227
REMARK   94  A    between atoms: _229  and  _231
REMARK   95  A    between atoms: _231  and  _232
REMARK   96  A    between atoms: _231  and  _234
REMARK   97  A    between atoms: _234  and  _235
REMARK   98  A    between atoms: _235  and  _236
REMARK   99  A    between atoms: _236  and  _237
REMARK  100  A    between atoms: _237  and  _238
REMARK  101  A    between atoms: _242  and  _244
REMARK  102  A    between atoms: _244  and  _245
REMARK  103  A    between atoms: _244  and  _247
REMARK  104  A    between atoms: _247  and  _248
REMARK  105  A    between atoms: _253  and  _255
REMARK  106  A    between atoms: _255  and  _256
REMARK  107  A    between atoms: _258  and  _260
REMARK  108  A    between atoms: _260  and  _261
REMARK  109  A    between atoms: _260  and  _263
REMARK  110  A    between atoms: _263  and  _264
REMARK  111  A    between atoms: _267  and  _269
REMARK  112  A    between atoms: _269  and  _270
REMARK  113  A    between atoms: _269  and  _272
REMARK  114  A    between atoms: _272  and  _273
REMARK  115  A    between atoms: _276  and  _278
REMARK  116  A    between atoms: _278  and  _279
REMARK  117  A    between atoms: _278  and  _281
REMARK  118  A    between atoms: _281  and  _282
REMARK  119  A    between atoms: _282  and  _283
REMARK  120  A    between atoms: _283  and  _284
REMARK  121  A    between atoms: _293  and  _295
REMARK  122  A    between atoms: _295  and  _296
REMARK  123  A    between atoms: _295  and  _298
REMARK  124  A    between atoms: _298  and  _299
REMARK  125  A    between atoms: _304  and  _306
REMARK  126  A    between atoms: _306  and  _307
REMARK  127  A    between atoms: _306  and  _309
REMARK  128  A    between atoms: _309  and  _310
REMARK  129  A    between atoms: _310  and  _311
REMARK  130  A    between atoms: _311  and  _312
REMARK  131  A    between atoms: _321  and  _323
REMARK  132  A    between atoms: _323  and  _324
REMARK  133  A    between atoms: _323  and  _326
REMARK  134  A    between atoms: _326  and  _327
REMARK  135  A    between atoms: _332  and  _334
REMARK  136  A    between atoms: _334  and  _335
REMARK  137  A    between atoms: _334  and  _337
REMARK  138  A    between atoms: _337  and  _338
REMARK  139  A    between atoms: _341  and  _343
REMARK  140  A    between atoms: _343  and  _344
REMARK  141  A    between atoms: _347  and  _349
REMARK  142  A    between atoms: _349  and  _350
REMARK  143  A    between atoms: _353  and  _355
REMARK  144  A    between atoms: _355  and  _356
REMARK  145  A    between atoms: _355  and  _358
REMARK  146  A    between atoms: _358  and  _359
REMARK  147  A    between atoms: _359  and  _360
REMARK  148  A    between atoms: _360  and  _361
REMARK  149  A    between atoms: _370  and  _372
REMARK  150  A    between atoms: _372  and  _373
REMARK  151  A    between atoms: _372  and  _375
REMARK  152  A    between atoms: _375  and  _376
REMARK  153  A    between atoms: _381  and  _383
REMARK  154  A    between atoms: _383  and  _384
REMARK  155  A    between atoms: _383  and  _386
REMARK  156  A    between atoms: _388  and  _390
REMARK  157  A    between atoms: _390  and  _391
REMARK  158  A    between atoms: _390  and  _393
REMARK  159  A    between atoms: _393  and  _394
REMARK  160  A    between atoms: _394  and  _395
REMARK  161  A    between atoms: _397  and  _399
REMARK  162  A    between atoms: _399  and  _400
REMARK  163  A    between atoms: _399  and  _402
REMARK  164  A    between atoms: _402  and  _403
REMARK  165  A    between atoms: _406  and  _408
REMARK  166  A    between atoms: _408  and  _409
REMARK  167  A    between atoms: _408  and  _411
REMARK  168  A    between atoms: _411  and  _412
REMARK  169  A    between atoms: _415  and  _417
REMARK  170  A    between atoms: _417  and  _418
REMARK  171  A    between atoms: _417  and  _420
REMARK  172  A    between atoms: _420  and  _421
REMARK  173  A    between atoms: _421  and  _422
REMARK  174  A    between atoms: _422  and  _423
REMARK  175  A    between atoms: _423  and  _424
REMARK  176  A    between atoms: _428  and  _430
REMARK  177  A    between atoms: _430  and  _431
REMARK  178  A    between atoms: _430  and  _433
REMARK  179  A    between atoms: _436  and  _438
REMARK  180  A    between atoms: _438  and  _439
REMARK  181  A    between atoms: _442  and  _444
REMARK  182  A    between atoms: _444  and  _445
REMARK  183  A    between atoms: _444  and  _447
REMARK  184  A    between atoms: _447  and  _448
REMARK  185  A    between atoms: _451  and  _453
REMARK  186  A    between atoms: _453  and  _454
REMARK  187  A    between atoms: _453  and  _456
REMARK  188  A    between atoms: _456  and  _457
REMARK  189  A    between atoms: _463  and  _465
REMARK  190  A    between atoms: _465  and  _466
REMARK  191  A    between atoms: _465  and  _468
REMARK  192  A    between atoms: _468  and  _469
REMARK  193  A    between atoms: _472  and  _474
REMARK  194  A    between atoms: _474  and  _475
REMARK  195  A    between atoms: _478  and  _480
REMARK  196  A    between atoms: _480  and  _481
REMARK  197  A    between atoms: _480  and  _483
REMARK  198  A    between atoms: _483  and  _484
REMARK  199  A    between atoms: _484  and  _485
REMARK  200  A    between atoms: _485  and  _486
REMARK  201  A    between atoms: _495  and  _497
REMARK  202  A    between atoms: _497  and  _498
REMARK  203  A    between atoms: _497  and  _500
REMARK  204  A    between atoms: _500  and  _501
REMARK  205  A    between atoms: _504  and  _506
REMARK  206  A    between atoms: _506  and  _507
REMARK  207  A    between atoms: _506  and  _509
REMARK  208  A    between atoms: _509  and  _510
REMARK  209  A    between atoms: _510  and  _511
REMARK  210  A    between atoms: _513  and  _515
REMARK  211  A    between atoms: _515  and  _516
REMARK  212  A    between atoms: _515  and  _518
REMARK  213  A    between atoms: _518  and  _519
REMARK  214  A    between atoms: _524  and  _525
REMARK  215  A    between atoms: _527  and  _529
REMARK  216  A    between atoms: _529  and  _530
REMARK  217  A    between atoms: _529  and  _532
REMARK  218  A    between atoms: _532  and  _533
REMARK  219  A    between atoms: _536  and  _538
REMARK  220  A    between atoms: _538  and  _539
REMARK  221  A    between atoms: _538  and  _541
REMARK  222  A    between atoms: _541  and  _542
REMARK  223  A    between atoms: _542  and  _543
REMARK  224  A    between atoms: _543  and  _544
REMARK  225  A    between atoms: _544  and  _545
REMARK  226  A    between atoms: _549  and  _551
REMARK  227  A    between atoms: _551  and  _552
REMARK  228  A    between atoms: _551  and  _554
REMARK  229  A    between atoms: _554  and  _555
REMARK  230  A    between atoms: _560  and  _561
REMARK  231  A    between atoms: _563  and  _565
REMARK  232  A    between atoms: _565  and  _566
REMARK  233  A    between atoms: _565  and  _568
REMARK  234  A    between atoms: _568  and  _569
REMARK  235  A    between atoms: _574  and  _575
REMARK                            x       y       z     vdW  Elec       q    Type
REMARK                         _______ _______ _______ _____ _____    ______ ____
ROOT
ATOM      1  O   HOH     1      14.013  14.484  -1.041  0.00  0.00    +0.000 OA
ENDROOT
TORSDOF 0
REMARK  Name = ../refined-set-2016/3zze/3zze_pocket.pdb
REMARK  235 active torsions:
REMARK  status: ('A' for Active; 'I' for Inactive)
REMARK    1  A    between atoms: _1  and  _3
REMARK    2  A    between atoms: _3  and  _4
REMARK    3  A    between atoms: _3  and  _6
REMARK    4  A    between atoms: _9  and  _11
REMARK    5  A    between atoms: _11  and  _12
REMARK    6  A    between atoms: _11  and  _14
REMARK    7  A    between atoms: _14  and  _15
REMARK    8  A    between atoms: _18  and  _20
REMARK    9  A    between atoms: _20  and  _21
REMARK   10  A    between atoms: _23  and  _25
REMARK   11  A    between atoms: _25  and  _26
REMARK   12  A    between atoms: _25  and  _28
REMARK   13  A    between atoms: _28  and  _29
REMARK   14  A    between atoms: _29  and  _30
REMARK   15  A    between atoms: _30  and  _31
REMARK   16  A    between atoms: _40  and  _42
REMARK   17  A    between atoms: _42  and  _43
REMARK   18  A    between atoms: _45  and  _47
REMARK   19  A    between atoms: _47  and  _48
REMARK   20  A    between atoms: _50  and  _52
REMARK   21  A    between atoms: _52  and  _53
REMARK   22  A    between atoms: _52  and  _55
REMARK   23  A    between atoms: _57  and  _59
REMARK   24  A    between atoms: _59  and  _60
REMARK   25  A    between atoms: _59  and  _62
REMARK   26  A    between atoms: _65  and  _67
REMARK   27  A    between atoms: _67  and  _68
REMARK   28  A    between atoms: _67  and  _70
REMARK   29  A    between atoms: _70  and  _71
REMARK   30  A    between atoms: _76  and  _77
REMARK   31  A    between atoms: _79  and  _81
REMARK   32  A    between atoms: _81  and  _82
REMARK   33  A    between atoms: _81  and  _84
REMARK   34  A    between atoms: _84  and  _85
REMARK   35  A    between atoms: _90  and  _92
REMARK   36  A    between atoms: _92  and  _93
REMARK   37  A    between atoms: _95  and  _97
REMARK   38  A    between atoms: _97  and  _98
REMARK   39  A    between atoms: _97  and  _100
REMARK   40  A    between atoms: _100  and  _101
REMARK   41  A    between atoms: _106  and  _108
REMARK   42  A    between atoms: _108  and  _109
REMARK   43  A    between atoms: _108  and  _111
REMARK   44  A    between atoms: _113  and  _115
REMARK   45  A    between atoms: _115  and  _116
REMARK   46  A    between atoms: _119  and  _121
REMARK   47  A    between atoms: _121  and  _122
REMARK   48  A    between atoms: _121  and  _124
REMARK   49  A    between atoms: _127  and  _129
REMARK   50  A    between atoms: _129  and  _130
REMARK   51  A    between atoms: _129  and  _132
REMARK   52  A    between atoms: _132  and  _133
REMARK   53  A    between atoms: _133  and  _134
REMARK   54  A    between atoms: _134  and  _135
REMARK   55  A    between atoms: _135  and  _136
REMARK   56  A    between atoms: _140  and  _142
REMARK   57  A    between atoms: _142  and  _143
REMARK   58  A    between atoms: _142  and  _145
REMARK   59  A    between atoms: _145  and  _146
REMARK   60  A    between atoms: _148  and  _150
REMARK   61  A    between atoms: _150  and  _151
REMARK   62  A    between atoms: _150  and  _153
REMARK   63  A    between atoms: _153  and  _154
REMARK   64  A    between atoms: _154  and  _155
REMARK   65  A    between atoms: _157  and  _159
REMARK   66  A    between atoms: _159  and  _160
REMARK   67  A    between atoms: _159  and  _162
REMARK   68  A    between atoms: _162  and  _163
REMARK   69  A    between atoms: _166  and  _168
REMARK   70  A    between atoms: _168  and  _169
REMARK   71  A    between atoms: _168  and  _171
REMARK   72  A    between atoms: _171  and  _172
REMARK   73  A    between atoms: _174  and  _176
REMARK   74  A    between atoms: _176  and  _177
REMARK   75  A    between atoms: _176  and  _179
REMARK   76  A    between atoms: _182  and  _184
REMARK   77  A    between atoms: _184  and  _185
REMARK   78  A    between atoms: _184  and  _187
REMARK   79  A    between atoms: _190  and  _192
REMARK   80  A    between atoms: _192  and  _193
REMARK   81  A    between atoms: _192  and  _195
REMARK   82  A    between atoms: _195  and  _196
REMARK   83  A    between atoms: _200  and  _201
REMARK   84  A    between atoms: _206  and  _208
REMARK   85  A    between atoms: _208  and  _209
REMARK   86  A    between atoms: _208  and  _211
REMARK   87  A    between atoms: _211  and  _212
REMARK   88  A    between atoms: _217  and  _218
REMARK   89  A    between atoms: _220  and  _222
REMARK   90  A    between atoms: _222  and  _223
REMARK   91  A    between atoms: _222  and  _225
REMARK   92  A    between atoms: _225  and  _226
REMARK   93  A    between atoms: _226  and  _227
REMARK   94  A    between atoms: _229  and  _231
REMARK   95  A    between atoms: _231  and  _232
REMARK   96  A    between atoms: _231  and  _234
REMARK   97  A    between atoms: _234  and  _235
REMARK   98  A    between atoms: _235  and  _236
REMARK   99  A    between atoms: _236  and  _237
REMARK  100  A    between atoms: _237  and  _238
REMARK  101  A    between atoms: _242  and  _244
REMARK  102  A    between atoms: _244  and  _245
REMARK  103  A    between atoms: _244  and  _247
REMARK  104  A    between atoms: _247  and  _248
REMARK  105  A    between atoms: _253  and  _255
REMARK  106  A    between atoms: _255  and  _256
REMARK  107  A    between atoms: _258  and  _260
REMARK  108  A    between atoms: _260  and  _261
REMARK  109  A    between atoms: _260  and  _263
REMARK  110  A    between atoms: _263  and  _264
REMARK  111  A    between atoms: _267  and  _269
REMARK  112  A    between atoms: _269  and  _270
REMARK  113  A    between atoms: _269  and  _272
REMARK  114  A    between atoms: _272  and  _273
REMARK  115  A    between atoms: _276  and  _278
REMARK  116  A    between atoms: _278  and  _279
REMARK  117  A    between atoms: _278  and  _281
REMARK  118  A    between atoms: _281  and  _282
REMARK  119  A    between atoms: _282  and  _283
REMARK  120  A    between atoms: _283  and  _284
REMARK  121  A    between atoms: _293  and  _295
REMARK  122  A    between atoms: _295  and  _296
REMARK  123  A    between atoms: _295  and  _298
REMARK  124  A    between atoms: _298  and  _299
REMARK  125  A    between atoms: _304  and  _306
REMARK  126  A    between atoms: _306  and  _307
REMARK  127  A    between atoms: _306  and  _309
REMARK  128  A    between atoms: _309  and  _310
REMARK  129  A    between atoms: _310  and  _311
REMARK  130  A    between atoms: _311  and  _312
REMARK  131  A    between atoms: _321  and  _323
REMARK  132  A    between atoms: _323  and  _324
REMARK  133  A    between atoms: _323  and  _326
REMARK  134  A    between atoms: _326  and  _327
REMARK  135  A    between atoms: _332  and  _334
REMARK  136  A    between atoms: _334  and  _335
REMARK  137  A    between atoms: _334  and  _337
REMARK  138  A    between atoms: _337  and  _338
REMARK  139  A    between atoms: _341  and  _343
REMARK  140  A    between atoms: _343  and  _344
REMARK  141  A    between atoms: _347  and  _349
REMARK  142  A    between atoms: _349  and  _350
REMARK  143  A    between atoms: _353  and  _355
REMARK  144  A    between atoms: _355  and  _356
REMARK  145  A    between atoms: _355  and  _358
REMARK  146  A    between atoms: _358  and  _359
REMARK  147  A    between atoms: _359  and  _360
REMARK  148  A    between atoms: _360  and  _361
REMARK  149  A    between atoms: _370  and  _372
REMARK  150  A    between atoms: _372  and  _373
REMARK  151  A    between atoms: _372  and  _375
REMARK  152  A    between atoms: _375  and  _376
REMARK  153  A    between atoms: _381  and  _383
REMARK  154  A    between atoms: _383  and  _384
REMARK  155  A    between atoms: _383  and  _386
REMARK  156  A    between atoms: _388  and  _390
REMARK  157  A    between atoms: _390  and  _391
REMARK  158  A    between atoms: _390  and  _393
REMARK  159  A    between atoms: _393  and  _394
REMARK  160  A    between atoms: _394  and  _395
REMARK  161  A    between atoms: _397  and  _399
REMARK  162  A    between atoms: _399  and  _400
REMARK  163  A    between atoms: _399  and  _402
REMARK  164  A    between atoms: _402  and  _403
REMARK  165  A    between atoms: _406  and  _408
REMARK  166  A    between atoms: _408  and  _409
REMARK  167  A    between atoms: _408  and  _411
REMARK  168  A    between atoms: _411  and  _412
REMARK  169  A    between atoms: _415  and  _417
REMARK  170  A    between atoms: _417  and  _418
REMARK  171  A    between atoms: _417  and  _420
REMARK  172  A    between atoms: _420  and  _421
REMARK  173  A    between atoms: _421  and  _422
REMARK  174  A    between atoms: _422  and  _423
REMARK  175  A    between atoms: _423  and  _424
REMARK  176  A    between atoms: _428  and  _430
REMARK  177  A    between atoms: _430  and  _431
REMARK  178  A    between atoms: _430  and  _433
REMARK  179  A    between atoms: _436  and  _438
REMARK  180  A    between atoms: _438  and  _439
REMARK  181  A    between atoms: _442  and  _444
REMARK  182  A    between atoms: _444  and  _445
REMARK  183  A    between atoms: _444  and  _447
REMARK  184  A    between atoms: _447  and  _448
REMARK  185  A    between atoms: _451  and  _453
REMARK  186  A    between atoms: _453  and  _454
REMARK  187  A    between atoms: _453  and  _456
REMARK  188  A    between atoms: _456  and  _457
REMARK  189  A    between atoms: _463  and  _465
REMARK  190  A    between atoms: _465  and  _466
REMARK  191  A    between atoms: _465  and  _468
REMARK  192  A    between atoms: _468  and  _469
REMARK  193  A    between atoms: _472  and  _474
REMARK  194  A    between atoms: _474  and  _475
REMARK  195  A    between atoms: _478  and  _480
REMARK  196  A    between atoms: _480  and  _481
REMARK  197  A    between atoms: _480  and  _483
REMARK  198  A    between atoms: _483  and  _484
REMARK  199  A    between atoms: _484  and  _485
REMARK  200  A    between atoms: _485  and  _486
REMARK  201  A    between atoms: _495  and  _497
REMARK  202  A    between atoms: _497  and  _498
REMARK  203  A    between atoms: _497  and  _500
REMARK  204  A    between atoms: _500  and  _501
REMARK  205  A    between atoms: _504  and  _506
REMARK  206  A    between atoms: _506  and  _507
REMARK  207  A    between atoms: _506  and  _509
REMARK  208  A    between atoms: _509  and  _510
REMARK  209  A    between atoms: _510  and  _511
REMARK  210  A    between atoms: _513  and  _515
REMARK  211  A    between atoms: _515  and  _516
REMARK  212  A    between atoms: _515  and  _518
REMARK  213  A    between atoms: _518  and  _519
REMARK  214  A    between atoms: _524  and  _525
REMARK  215  A    between atoms: _527  and  _529
REMARK  216  A    between atoms: _529  and  _530
REMARK  217  A    between atoms: _529  and  _532
REMARK  218  A    between atoms: _532  and  _533
REMARK  219  A    between atoms: _536  and  _538
REMARK  220  A    between atoms: _538  and  _539
REMARK  221  A    between atoms: _538  and  _541
REMARK  222  A    between atoms: _541  and  _542
REMARK  223  A    between atoms: _542  and  _543
REMARK  224  A    between atoms: _543  and  _544
REMARK  225  A    between atoms: _544  and  _545
REMARK  226  A    between atoms: _549  and  _551
REMARK  227  A    between atoms: _551  and  _552
REMARK  228  A    between atoms: _551  and  _554
REMARK  229  A    between atoms: _554  and  _555
REMARK  230  A    between atoms: _560  and  _561
REMARK  231  A    between atoms: _563  and  _565
REMARK  232  A    between atoms: _565  and  _566
REMARK  233  A    between atoms: _565  and  _568
REMARK  234  A    between atoms: _568  and  _569
REMARK  235  A    between atoms: _574  and  _575
REMARK                            x       y       z     vdW  Elec       q    Type
REMARK                         _______ _______ _______ _____ _____    ______ ____
ROOT
ATOM      1  O   HOH     1      17.437  12.340  -1.403  0.00  0.00    +0.000 OA
ENDROOT
TORSDOF 0
REMARK  Name = ../refined-set-2016/3zze/3zze_pocket.pdb
REMARK  235 active torsions:
REMARK  status: ('A' for Active; 'I' for Inactive)
REMARK    1  A    between atoms: _1  and  _3
REMARK    2  A    between atoms: _3  and  _4
REMARK    3  A    between atoms: _3  and  _6
REMARK    4  A    between atoms: _9  and  _11
REMARK    5  A    between atoms: _11  and  _12
REMARK    6  A    between atoms: _11  and  _14
REMARK    7  A    between atoms: _14  and  _15
REMARK    8  A    between atoms: _18  and  _20
REMARK    9  A    between atoms: _20  and  _21
REMARK   10  A    between atoms: _23  and  _25
REMARK   11  A    between atoms: _25  and  _26
REMARK   12  A    between atoms: _25  and  _28
REMARK   13  A    between atoms: _28  and  _29
REMARK   14  A    between atoms: _29  and  _30
REMARK   15  A    between atoms: _30  and  _31
REMARK   16  A    between atoms: _40  and  _42
REMARK   17  A    between atoms: _42  and  _43
REMARK   18  A    between atoms: _45  and  _47
REMARK   19  A    between atoms: _47  and  _48
REMARK   20  A    between atoms: _50  and  _52
REMARK   21  A    between atoms: _52  and  _53
REMARK   22  A    between atoms: _52  and  _55
REMARK   23  A    between atoms: _57  and  _59
REMARK   24  A    between atoms: _59  and  _60
REMARK   25  A    between atoms: _59  and  _62
REMARK   26  A    between atoms: _65  and  _67
REMARK   27  A    between atoms: _67  and  _68
REMARK   28  A    between atoms: _67  and  _70
REMARK   29  A    between atoms: _70  and  _71
REMARK   30  A    between atoms: _76  and  _77
REMARK   31  A    between atoms: _79  and  _81
REMARK   32  A    between atoms: _81  and  _82
REMARK   33  A    between atoms: _81  and  _84
REMARK   34  A    between atoms: _84  and  _85
REMARK   35  A    between atoms: _90  and  _92
REMARK   36  A    between atoms: _92  and  _93
REMARK   37  A    between atoms: _95  and  _97
REMARK   38  A    between atoms: _97  and  _98
REMARK   39  A    between atoms: _97  and  _100
REMARK   40  A    between atoms: _100  and  _101
REMARK   41  A    between atoms: _106  and  _108
REMARK   42  A    between atoms: _108  and  _109
REMARK   43  A    between atoms: _108  and  _111
REMARK   44  A    between atoms: _113  and  _115
REMARK   45  A    between atoms: _115  and  _116
REMARK   46  A    between atoms: _119  and  _121
REMARK   47  A    between atoms: _121  and  _122
REMARK   48  A    between atoms: _121  and  _124
REMARK   49  A    between atoms: _127  and  _129
REMARK   50  A    between atoms: _129  and  _130
REMARK   51  A    between atoms: _129  and  _132
REMARK   52  A    between atoms: _132  and  _133
REMARK   53  A    between atoms: _133  and  _134
REMARK   54  A    between atoms: _134  and  _135
REMARK   55  A    between atoms: _135  and  _136
REMARK   56  A    between atoms: _140  and  _142
REMARK   57  A    between atoms: _142  and  _143
REMARK   58  A    between atoms: _142  and  _145
REMARK   59  A    between atoms: _145  and  _146
REMARK   60  A    between atoms: _148  and  _150
REMARK   61  A    between atoms: _150  and  _151
REMARK   62  A    between atoms: _150  and  _153
REMARK   63  A    between atoms: _153  and  _154
REMARK   64  A    between atoms: _154  and  _155
REMARK   65  A    between atoms: _157  and  _159
REMARK   66  A    between atoms: _159  and  _160
REMARK   67  A    between atoms: _159  and  _162
REMARK   68  A    between atoms: _162  and  _163
REMARK   69  A    between atoms: _166  and  _168
REMARK   70  A    between atoms: _168  and  _169
REMARK   71  A    between atoms: _168  and  _171
REMARK   72  A    between atoms: _171  and  _172
REMARK   73  A    between atoms: _174  and  _176
REMARK   74  A    between atoms: _176  and  _177
REMARK   75  A    between atoms: _176  and  _179
REMARK   76  A    between atoms: _182  and  _184
REMARK   77  A    between atoms: _184  and  _185
REMARK   78  A    between atoms: _184  and  _187
REMARK   79  A    between atoms: _190  and  _192
REMARK   80  A    between atoms: _192  and  _193
REMARK   81  A    between atoms: _192  and  _195
REMARK   82  A    between atoms: _195  and  _196
REMARK   83  A    between atoms: _200  and  _201
REMARK   84  A    between atoms: _206  and  _208
REMARK   85  A    between atoms: _208  and  _209
REMARK   86  A    between atoms: _208  and  _211
REMARK   87  A    between atoms: _211  and  _212
REMARK   88  A    between atoms: _217  and  _218
REMARK   89  A    between atoms: _220  and  _222
REMARK   90  A    between atoms: _222  and  _223
REMARK   91  A    between atoms: _222  and  _225
REMARK   92  A    between atoms: _225  and  _226
REMARK   93  A    between atoms: _226  and  _227
REMARK   94  A    between atoms: _229  and  _231
REMARK   95  A    between atoms: _231  and  _232
REMARK   96  A    between atoms: _231  and  _234
REMARK   97  A    between atoms: _234  and  _235
REMARK   98  A    between atoms: _235  and  _236
REMARK   99  A    between atoms: _236  and  _237
REMARK  100  A    between atoms: _237  and  _238
REMARK  101  A    between atoms: _242  and  _244
REMARK  102  A    between atoms: _244  and  _245
REMARK  103  A    between atoms: _244  and  _247
REMARK  104  A    between atoms: _247  and  _248
REMARK  105  A    between atoms: _253  and  _255
REMARK  106  A    between atoms: _255  and  _256
REMARK  107  A    between atoms: _258  and  _260
REMARK  108  A    between atoms: _260  and  _261
REMARK  109  A    between atoms: _260  and  _263
REMARK  110  A    between atoms: _263  and  _264
REMARK  111  A    between atoms: _267  and  _269
REMARK  112  A    between atoms: _269  and  _270
REMARK  113  A    between atoms: _269  and  _272
REMARK  114  A    between atoms: _272  and  _273
REMARK  115  A    between atoms: _276  and  _278
REMARK  116  A    between atoms: _278  and  _279
REMARK  117  A    between atoms: _278  and  _281
REMARK  118  A    between atoms: _281  and  _282
REMARK  119  A    between atoms: _282  and  _283
REMARK  120  A    between atoms: _283  and  _284
REMARK  121  A    between atoms: _293  and  _295
REMARK  122  A    between atoms: _295  and  _296
REMARK  123  A    between atoms: _295  and  _298
REMARK  124  A    between atoms: _298  and  _299
REMARK  125  A    between atoms: _304  and  _306
REMARK  126  A    between atoms: _306  and  _307
REMARK  127  A    between atoms: _306  and  _309
REMARK  128  A    between atoms: _309  and  _310
REMARK  129  A    between atoms: _310  and  _311
REMARK  130  A    between atoms: _311  and  _312
REMARK  131  A    between atoms: _321  and  _323
REMARK  132  A    between atoms: _323  and  _324
REMARK  133  A    between atoms: _323  and  _326
REMARK  134  A    between atoms: _326  and  _327
REMARK  135  A    between atoms: _332  and  _334
REMARK  136  A    between atoms: _334  and  _335
REMARK  137  A    between atoms: _334  and  _337
REMARK  138  A    between atoms: _337  and  _338
REMARK  139  A    between atoms: _341  and  _343
REMARK  140  A    between atoms: _343  and  _344
REMARK  141  A    between atoms: _347  and  _349
REMARK  142  A    between atoms: _349  and  _350
REMARK  143  A    between atoms: _353  and  _355
REMARK  144  A    between atoms: _355  and  _356
REMARK  145  A    between atoms: _355  and  _358
REMARK  146  A    between atoms: _358  and  _359
REMARK  147  A    between atoms: _359  and  _360
REMARK  148  A    between atoms: _360  and  _361
REMARK  149  A    between atoms: _370  and  _372
REMARK  150  A    between atoms: _372  and  _373
REMARK  151  A    between atoms: _372  and  _375
REMARK  152  A    between atoms: _375  and  _376
REMARK  153  A    between atoms: _381  and  _383
REMARK  154  A    between atoms: _383  and  _384
REMARK  155  A    between atoms: _383  and  _386
REMARK  156  A    between atoms: _388  and  _390
REMARK  157  A    between atoms: _390  and  _391
REMARK  158  A    between atoms: _390  and  _393
REMARK  159  A    between atoms: _393  and  _394
REMARK  160  A    between atoms: _394  and  _395
REMARK  161  A    between atoms: _397  and  _399
REMARK  162  A    between atoms: _399  and  _400
REMARK  163  A    between atoms: _399  and  _402
REMARK  164  A    between atoms: _402  and  _403
REMARK  165  A    between atoms: _406  and  _408
REMARK  166  A    between atoms: _408  and  _409
REMARK  167  A    between atoms: _408  and  _411
REMARK  168  A    between atoms: _411  and  _412
REMARK  169  A    between atoms: _415  and  _417
REMARK  170  A    between atoms: _417  and  _418
REMARK  171  A    between atoms: _417  and  _420
REMARK  172  A    between atoms: _420  and  _421
REMARK  173  A    between atoms: _421  and  _422
REMARK  174  A    between atoms: _422  and  _423
REMARK  175  A    between atoms: _423  and  _424
REMARK  176  A    between atoms: _428  and  _430
REMARK  177  A    between atoms: _430  and  _431
REMARK  178  A    between atoms: _430  and  _433
REMARK  179  A    between atoms: _436  and  _438
REMARK  180  A    between atoms: _438  and  _439
REMARK  181  A    between atoms: _442  and  _444
REMARK  182  A    between atoms: _444  and  _445
REMARK  183  A    between atoms: _444  and  _447
REMARK  184  A    between atoms: _447  and  _448
REMARK  185  A    between atoms: _451  and  _453
REMARK  186  A    between atoms: _453  and  _454
REMARK  187  A    between atoms: _453  and  _456
REMARK  188  A    between atoms: _456  and  _457
REMARK  189  A    between atoms: _463  and  _465
REMARK  190  A    between atoms: _465  and  _466
REMARK  191  A    between atoms: _465  and  _468
REMARK  192  A    between atoms: _468  and  _469
REMARK  193  A    between atoms: _472  and  _474
REMARK  194  A    between atoms: _474  and  _475
REMARK  195  A    between atoms: _478  and  _480
REMARK  196  A    between atoms: _480  and  _481
REMARK  197  A    between atoms: _480  and  _483
REMARK  198  A    between atoms: _483  and  _484
REMARK  199  A    between atoms: _484  and  _485
REMARK  200  A    between atoms: _485  and  _486
REMARK  201  A    between atoms: _495  and  _497
REMARK  202  A    between atoms: _497  and  _498
REMARK  203  A    between atoms: _497  and  _500
REMARK  204  A    between atoms: _500  and  _501
REMARK  205  A    between atoms: _504  and  _506
REMARK  206  A    between atoms: _506  and  _507
REMARK  207  A    between atoms: _506  and  _509
REMARK  208  A    between atoms: _509  and  _510
REMARK  209  A    between atoms: _510  and  _511
REMARK  210  A    between atoms: _513  and  _515
REMARK  211  A    between atoms: _515  and  _516
REMARK  212  A    between atoms: _515  and  _518
REMARK  213  A    between atoms: _518  and  _519
REMARK  214  A    between atoms: _524  and  _525
REMARK  215  A    between atoms: _527  and  _529
REMARK  216  A    between atoms: _529  and  _530
REMARK  217  A    between atoms: _529  and  _532
REMARK  218  A    between atoms: _532  and  _533
REMARK  219  A    between atoms: _536  and  _538
REMARK  220  A    between atoms: _538  and  _539
REMARK  221  A    between atoms: _538  and  _541
REMARK  222  A    between atoms: _541  and  _542
REMARK  223  A    between atoms: _542  and  _543
REMARK  224  A    between atoms: _543  and  _544
REMARK  225  A    between atoms: _544  and  _545
REMARK  226  A    between atoms: _549  and  _551
REMARK  227  A    between atoms: _551  and  _552
REMARK  228  A    between atoms: _551  and  _554
REMARK  229  A    between atoms: _554  and  _555
REMARK  230  A    between atoms: _560  and  _561
REMARK  231  A    between atoms: _563  and  _565
REMARK  232  A    between atoms: _565  and  _566
REMARK  233  A    between atoms: _565  and  _568
REMARK  234  A    between atoms: _568  and  _569
REMARK  235  A    between atoms: _574  and  _575
REMARK                            x       y       z     vdW  Elec       q    Type
REMARK                         _______ _______ _______ _____ _____    ______ ____
ROOT
ATOM      1  O   HOH     1      22.798  10.104  -1.202  0.00  0.00    +0.000 OA
ENDROOT
TORSDOF 0
REMARK  Name = ../refined-set-2016/3zze/3zze_pocket.pdb
REMARK  235 active torsions:
REMARK  status: ('A' for Active; 'I' for Inactive)
REMARK    1  A    between atoms: _1  and  _3
REMARK    2  A    between atoms: _3  and  _4
REMARK    3  A    between atoms: _3  and  _6
REMARK    4  A    between atoms: _9  and  _11
REMARK    5  A    between atoms: _11  and  _12
REMARK    6  A    between atoms: _11  and  _14
REMARK    7  A    between atoms: _14  and  _15
REMARK    8  A    between atoms: _18  and  _20
REMARK    9  A    between atoms: _20  and  _21
REMARK   10  A    between atoms: _23  and  _25
REMARK   11  A    between atoms: _25  and  _26
REMARK   12  A    between atoms: _25  and  _28
REMARK   13  A    between atoms: _28  and  _29
REMARK   14  A    between atoms: _29  and  _30
REMARK   15  A    between atoms: _30  and  _31
REMARK   16  A    between atoms: _40  and  _42
REMARK   17  A    between atoms: _42  and  _43
REMARK   18  A    between atoms: _45  and  _47
REMARK   19  A    between atoms: _47  and  _48
REMARK   20  A    between atoms: _50  and  _52
REMARK   21  A    between atoms: _52  and  _53
REMARK   22  A    between atoms: _52  and  _55
REMARK   23  A    between atoms: _57  and  _59
REMARK   24  A    between atoms: _59  and  _60
REMARK   25  A    between atoms: _59  and  _62
REMARK   26  A    between atoms: _65  and  _67
REMARK   27  A    between atoms: _67  and  _68
REMARK   28  A    between atoms: _67  and  _70
REMARK   29  A    between atoms: _70  and  _71
REMARK   30  A    between atoms: _76  and  _77
REMARK   31  A    between atoms: _79  and  _81
REMARK   32  A    between atoms: _81  and  _82
REMARK   33  A    between atoms: _81  and  _84
REMARK   34  A    between atoms: _84  and  _85
REMARK   35  A    between atoms: _90  and  _92
REMARK   36  A    between atoms: _92  and  _93
REMARK   37  A    between atoms: _95  and  _97
REMARK   38  A    between atoms: _97  and  _98
REMARK   39  A    between atoms: _97  and  _100
REMARK   40  A    between atoms: _100  and  _101
REMARK   41  A    between atoms: _106  and  _108
REMARK   42  A    between atoms: _108  and  _109
REMARK   43  A    between atoms: _108  and  _111
REMARK   44  A    between atoms: _113  and  _115
REMARK   45  A    between atoms: _115  and  _116
REMARK   46  A    between atoms: _119  and  _121
REMARK   47  A    between atoms: _121  and  _122
REMARK   48  A    between atoms: _121  and  _124
REMARK   49  A    between atoms: _127  and  _129
REMARK   50  A    between atoms: _129  and  _130
REMARK   51  A    between atoms: _129  and  _132
REMARK   52  A    between atoms: _132  and  _133
REMARK   53  A    between atoms: _133  and  _134
REMARK   54  A    between atoms: _134  and  _135
REMARK   55  A    between atoms: _135  and  _136
REMARK   56  A    between atoms: _140  and  _142
REMARK   57  A    between atoms: _142  and  _143
REMARK   58  A    between atoms: _142  and  _145
REMARK   59  A    between atoms: _145  and  _146
REMARK   60  A    between atoms: _148  and  _150
REMARK   61  A    between atoms: _150  and  _151
REMARK   62  A    between atoms: _150  and  _153
REMARK   63  A    between atoms: _153  and  _154
REMARK   64  A    between atoms: _154  and  _155
REMARK   65  A    between atoms: _157  and  _159
REMARK   66  A    between atoms: _159  and  _160
REMARK   67  A    between atoms: _159  and  _162
REMARK   68  A    between atoms: _162  and  _163
REMARK   69  A    between atoms: _166  and  _168
REMARK   70  A    between atoms: _168  and  _169
REMARK   71  A    between atoms: _168  and  _171
REMARK   72  A    between atoms: _171  and  _172
REMARK   73  A    between atoms: _174  and  _176
REMARK   74  A    between atoms: _176  and  _177
REMARK   75  A    between atoms: _176  and  _179
REMARK   76  A    between atoms: _182  and  _184
REMARK   77  A    between atoms: _184  and  _185
REMARK   78  A    between atoms: _184  and  _187
REMARK   79  A    between atoms: _190  and  _192
REMARK   80  A    between atoms: _192  and  _193
REMARK   81  A    between atoms: _192  and  _195
REMARK   82  A    between atoms: _195  and  _196
REMARK   83  A    between atoms: _200  and  _201
REMARK   84  A    between atoms: _206  and  _208
REMARK   85  A    between atoms: _208  and  _209
REMARK   86  A    between atoms: _208  and  _211
REMARK   87  A    between atoms: _211  and  _212
REMARK   88  A    between atoms: _217  and  _218
REMARK   89  A    between atoms: _220  and  _222
REMARK   90  A    between atoms: _222  and  _223
REMARK   91  A    between atoms: _222  and  _225
REMARK   92  A    between atoms: _225  and  _226
REMARK   93  A    between atoms: _226  and  _227
REMARK   94  A    between atoms: _229  and  _231
REMARK   95  A    between atoms: _231  and  _232
REMARK   96  A    between atoms: _231  and  _234
REMARK   97  A    between atoms: _234  and  _235
REMARK   98  A    between atoms: _235  and  _236
REMARK   99  A    between atoms: _236  and  _237
REMARK  100  A    between atoms: _237  and  _238
REMARK  101  A    between atoms: _242  and  _244
REMARK  102  A    between atoms: _244  and  _245
REMARK  103  A    between atoms: _244  and  _247
REMARK  104  A    between atoms: _247  and  _248
REMARK  105  A    between atoms: _253  and  _255
REMARK  106  A    between atoms: _255  and  _256
REMARK  107  A    between atoms: _258  and  _260
REMARK  108  A    between atoms: _260  and  _261
REMARK  109  A    between atoms: _260  and  _263
REMARK  110  A    between atoms: _263  and  _264
REMARK  111  A    between atoms: _267  and  _269
REMARK  112  A    between atoms: _269  and  _270
REMARK  113  A    between atoms: _269  and  _272
REMARK  114  A    between atoms: _272  and  _273
REMARK  115  A    between atoms: _276  and  _278
REMARK  116  A    between atoms: _278  and  _279
REMARK  117  A    between atoms: _278  and  _281
REMARK  118  A    between atoms: _281  and  _282
REMARK  119  A    between atoms: _282  and  _283
REMARK  120  A    between atoms: _283  and  _284
REMARK  121  A    between atoms: _293  and  _295
REMARK  122  A    between atoms: _295  and  _296
REMARK  123  A    between atoms: _295  and  _298
REMARK  124  A    between atoms: _298  and  _299
REMARK  125  A    between atoms: _304  and  _306
REMARK  126  A    between atoms: _306  and  _307
REMARK  127  A    between atoms: _306  and  _309
REMARK  128  A    between atoms: _309  and  _310
REMARK  129  A    between atoms: _310  and  _311
REMARK  130  A    between atoms: _311  and  _312
REMARK  131  A    between atoms: _321  and  _323
REMARK  132  A    between atoms: _323  and  _324
REMARK  133  A    between atoms: _323  and  _326
REMARK  134  A    between atoms: _326  and  _327
REMARK  135  A    between atoms: _332  and  _334
REMARK  136  A    between atoms: _334  and  _335
REMARK  137  A    between atoms: _334  and  _337
REMARK  138  A    between atoms: _337  and  _338
REMARK  139  A    between atoms: _341  and  _343
REMARK  140  A    between atoms: _343  and  _344
REMARK  141  A    between atoms: _347  and  _349
REMARK  142  A    between atoms: _349  and  _350
REMARK  143  A    between atoms: _353  and  _355
REMARK  144  A    between atoms: _355  and  _356
REMARK  145  A    between atoms: _355  and  _358
REMARK  146  A    between atoms: _358  and  _359
REMARK  147  A    between atoms: _359  and  _360
REMARK  148  A    between atoms: _360  and  _361
REMARK  149  A    between atoms: _370  and  _372
REMARK  150  A    between atoms: _372  and  _373
REMARK  151  A    between atoms: _372  and  _375
REMARK  152  A    between atoms: _375  and  _376
REMARK  153  A    between atoms: _381  and  _383
REMARK  154  A    between atoms: _383  and  _384
REMARK  155  A    between atoms: _383  and  _386
REMARK  156  A    between atoms: _388  and  _390
REMARK  157  A    between atoms: _390  and  _391
REMARK  158  A    between atoms: _390  and  _393
REMARK  159  A    between atoms: _393  and  _394
REMARK  160  A    between atoms: _394  and  _395
REMARK  161  A    between atoms: _397  and  _399
REMARK  162  A    between atoms: _399  and  _400
REMARK  163  A    between atoms: _399  and  _402
REMARK  164  A    between atoms: _402  and  _403
REMARK  165  A    between atoms: _406  and  _408
REMARK  166  A    between atoms: _408  and  _409
REMARK  167  A    between atoms: _408  and  _411
REMARK  168  A    between atoms: _411  and  _412
REMARK  169  A    between atoms: _415  and  _417
REMARK  170  A    between atoms: _417  and  _418
REMARK  171  A    between atoms: _417  and  _420
REMARK  172  A    between atoms: _420  and  _421
REMARK  173  A    between atoms: _421  and  _422
REMARK  174  A    between atoms: _422  and  _423
REMARK  175  A    between atoms: _423  and  _424
REMARK  176  A    between atoms: _428  and  _430
REMARK  177  A    between atoms: _430  and  _431
REMARK  178  A    between atoms: _430  and  _433
REMARK  179  A    between atoms: _436  and  _438
REMARK  180  A    between atoms: _438  and  _439
REMARK  181  A    between atoms: _442  and  _444
REMARK  182  A    between atoms: _444  and  _445
REMARK  183  A    between atoms: _444  and  _447
REMARK  184  A    between atoms: _447  and  _448
REMARK  185  A    between atoms: _451  and  _453
REMARK  186  A    between atoms: _453  and  _454
REMARK  187  A    between atoms: _453  and  _456
REMARK  188  A    between atoms: _456  and  _457
REMARK  189  A    between atoms: _463  and  _465
REMARK  190  A    between atoms: _465  and  _466
REMARK  191  A    between atoms: _465  and  _468
REMARK  192  A    between atoms: _468  and  _469
REMARK  193  A    between atoms: _472  and  _474
REMARK  194  A    between atoms: _474  and  _475
REMARK  195  A    between atoms: _478  and  _480
REMARK  196  A    between atoms: _480  and  _481
REMARK  197  A    between atoms: _480  and  _483
REMARK  198  A    between atoms: _483  and  _484
REMARK  199  A    between atoms: _484  and  _485
REMARK  200  A    between atoms: _485  and  _486
REMARK  201  A    between atoms: _495  and  _497
REMARK  202  A    between atoms: _497  and  _498
REMARK  203  A    between atoms: _497  and  _500
REMARK  204  A    between atoms: _500  and  _501
REMARK  205  A    between atoms: _504  and  _506
REMARK  206  A    between atoms: _506  and  _507
REMARK  207  A    between atoms: _506  and  _509
REMARK  208  A    between atoms: _509  and  _510
REMARK  209  A    between atoms: _510  and  _511
REMARK  210  A    between atoms: _513  and  _515
REMARK  211  A    between atoms: _515  and  _516
REMARK  212  A    between atoms: _515  and  _518
REMARK  213  A    between atoms: _518  and  _519
REMARK  214  A    between atoms: _524  and  _525
REMARK  215  A    between atoms: _527  and  _529
REMARK  216  A    between atoms: _529  and  _530
REMARK  217  A    between atoms: _529  and  _532
REMARK  218  A    between atoms: _532  and  _533
REMARK  219  A    between atoms: _536  and  _538
REMARK  220  A    between atoms: _538  and  _539
REMARK  221  A    between atoms: _538  and  _541
REMARK  222  A    between atoms: _541  and  _542
REMARK  223  A    between atoms: _542  and  _543
REMARK  224  A    between atoms: _543  and  _544
REMARK  225  A    between atoms: _544  and  _545
REMARK  226  A    between atoms: _549  and  _551
REMARK  227  A    between atoms: _551  and  _552
REMARK  228  A    between atoms: _551  and  _554
REMARK  229  A    between atoms: _554  and  _555
REMARK  230  A    between atoms: _560  and  _561
REMARK  231  A    between atoms: _563  and  _565
REMARK  232  A    between atoms: _565  and  _566
REMARK  233  A    between atoms: _565  and  _568
REMARK  234  A    between atoms: _568  and  _569
REMARK  235  A    between atoms: _574  and  _575
REMARK                            x       y       z     vdW  Elec       q    Type
REMARK                         _______ _______ _______ _____ _____    ______ ____
ROOT
ATOM      1  O   HOH     1       8.533   4.804  10.563  0.00  0.00    +0.000 OA
ENDROOT
TORSDOF 0
REMARK  Name = ../refined-set-2016/3zze/3zze_pocket.pdb
REMARK  235 active torsions:
REMARK  status: ('A' for Active; 'I' for Inactive)
REMARK    1  A    between atoms: _1  and  _3
REMARK    2  A    between atoms: _3  and  _4
REMARK    3  A    between atoms: _3  and  _6
REMARK    4  A    between atoms: _9  and  _11
REMARK    5  A    between atoms: _11  and  _12
REMARK    6  A    between atoms: _11  and  _14
REMARK    7  A    between atoms: _14  and  _15
REMARK    8  A    between atoms: _18  and  _20
REMARK    9  A    between atoms: _20  and  _21
REMARK   10  A    between atoms: _23  and  _25
REMARK   11  A    between atoms: _25  and  _26
REMARK   12  A    between atoms: _25  and  _28
REMARK   13  A    between atoms: _28  and  _29
REMARK   14  A    between atoms: _29  and  _30
REMARK   15  A    between atoms: _30  and  _31
REMARK   16  A    between atoms: _40  and  _42
REMARK   17  A    between atoms: _42  and  _43
REMARK   18  A    between atoms: _45  and  _47
REMARK   19  A    between atoms: _47  and  _48
REMARK   20  A    between atoms: _50  and  _52
REMARK   21  A    between atoms: _52  and  _53
REMARK   22  A    between atoms: _52  and  _55
REMARK   23  A    between atoms: _57  and  _59
REMARK   24  A    between atoms: _59  and  _60
REMARK   25  A    between atoms: _59  and  _62
REMARK   26  A    between atoms: _65  and  _67
REMARK   27  A    between atoms: _67  and  _68
REMARK   28  A    between atoms: _67  and  _70
REMARK   29  A    between atoms: _70  and  _71
REMARK   30  A    between atoms: _76  and  _77
REMARK   31  A    between atoms: _79  and  _81
REMARK   32  A    between atoms: _81  and  _82
REMARK   33  A    between atoms: _81  and  _84
REMARK   34  A    between atoms: _84  and  _85
REMARK   35  A    between atoms: _90  and  _92
REMARK   36  A    between atoms: _92  and  _93
REMARK   37  A    between atoms: _95  and  _97
REMARK   38  A    between atoms: _97  and  _98
REMARK   39  A    between atoms: _97  and  _100
REMARK   40  A    between atoms: _100  and  _101
REMARK   41  A    between atoms: _106  and  _108
REMARK   42  A    between atoms: _108  and  _109
REMARK   43  A    between atoms: _108  and  _111
REMARK   44  A    between atoms: _113  and  _115
REMARK   45  A    between atoms: _115  and  _116
REMARK   46  A    between atoms: _119  and  _121
REMARK   47  A    between atoms: _121  and  _122
REMARK   48  A    between atoms: _121  and  _124
REMARK   49  A    between atoms: _127  and  _129
REMARK   50  A    between atoms: _129  and  _130
REMARK   51  A    between atoms: _129  and  _132
REMARK   52  A    between atoms: _132  and  _133
REMARK   53  A    between atoms: _133  and  _134
REMARK   54  A    between atoms: _134  and  _135
REMARK   55  A    between atoms: _135  and  _136
REMARK   56  A    between atoms: _140  and  _142
REMARK   57  A    between atoms: _142  and  _143
REMARK   58  A    between atoms: _142  and  _145
REMARK   59  A    between atoms: _145  and  _146
REMARK   60  A    between atoms: _148  and  _150
REMARK   61  A    between atoms: _150  and  _151
REMARK   62  A    between atoms: _150  and  _153
REMARK   63  A    between atoms: _153  and  _154
REMARK   64  A    between atoms: _154  and  _155
REMARK   65  A    between atoms: _157  and  _159
REMARK   66  A    between atoms: _159  and  _160
REMARK   67  A    between atoms: _159  and  _162
REMARK   68  A    between atoms: _162  and  _163
REMARK   69  A    between atoms: _166  and  _168
REMARK   70  A    between atoms: _168  and  _169
REMARK   71  A    between atoms: _168  and  _171
REMARK   72  A    between atoms: _171  and  _172
REMARK   73  A    between atoms: _174  and  _176
REMARK   74  A    between atoms: _176  and  _177
REMARK   75  A    between atoms: _176  and  _179
REMARK   76  A    between atoms: _182  and  _184
REMARK   77  A    between atoms: _184  and  _185
REMARK   78  A    between atoms: _184  and  _187
REMARK   79  A    between atoms: _190  and  _192
REMARK   80  A    between atoms: _192  and  _193
REMARK   81  A    between atoms: _192  and  _195
REMARK   82  A    between atoms: _195  and  _196
REMARK   83  A    between atoms: _200  and  _201
REMARK   84  A    between atoms: _206  and  _208
REMARK   85  A    between atoms: _208  and  _209
REMARK   86  A    between atoms: _208  and  _211
REMARK   87  A    between atoms: _211  and  _212
REMARK   88  A    between atoms: _217  and  _218
REMARK   89  A    between atoms: _220  and  _222
REMARK   90  A    between atoms: _222  and  _223
REMARK   91  A    between atoms: _222  and  _225
REMARK   92  A    between atoms: _225  and  _226
REMARK   93  A    between atoms: _226  and  _227
REMARK   94  A    between atoms: _229  and  _231
REMARK   95  A    between atoms: _231  and  _232
REMARK   96  A    between atoms: _231  and  _234
REMARK   97  A    between atoms: _234  and  _235
REMARK   98  A    between atoms: _235  and  _236
REMARK   99  A    between atoms: _236  and  _237
REMARK  100  A    between atoms: _237  and  _238
REMARK  101  A    between atoms: _242  and  _244
REMARK  102  A    between atoms: _244  and  _245
REMARK  103  A    between atoms: _244  and  _247
REMARK  104  A    between atoms: _247  and  _248
REMARK  105  A    between atoms: _253  and  _255
REMARK  106  A    between atoms: _255  and  _256
REMARK  107  A    between atoms: _258  and  _260
REMARK  108  A    between atoms: _260  and  _261
REMARK  109  A    between atoms: _260  and  _263
REMARK  110  A    between atoms: _263  and  _264
REMARK  111  A    between atoms: _267  and  _269
REMARK  112  A    between atoms: _269  and  _270
REMARK  113  A    between atoms: _269  and  _272
REMARK  114  A    between atoms: _272  and  _273
REMARK  115  A    between atoms: _276  and  _278
REMARK  116  A    between atoms: _278  and  _279
REMARK  117  A    between atoms: _278  and  _281
REMARK  118  A    between atoms: _281  and  _282
REMARK  119  A    between atoms: _282  and  _283
REMARK  120  A    between atoms: _283  and  _284
REMARK  121  A    between atoms: _293  and  _295
REMARK  122  A    between atoms: _295  and  _296
REMARK  123  A    between atoms: _295  and  _298
REMARK  124  A    between atoms: _298  and  _299
REMARK  125  A    between atoms: _304  and  _306
REMARK  126  A    between atoms: _306  and  _307
REMARK  127  A    between atoms: _306  and  _309
REMARK  128  A    between atoms: _309  and  _310
REMARK  129  A    between atoms: _310  and  _311
REMARK  130  A    between atoms: _311  and  _312
REMARK  131  A    between atoms: _321  and  _323
REMARK  132  A    between atoms: _323  and  _324
REMARK  133  A    between atoms: _323  and  _326
REMARK  134  A    between atoms: _326  and  _327
REMARK  135  A    between atoms: _332  and  _334
REMARK  136  A    between atoms: _334  and  _335
REMARK  137  A    between atoms: _334  and  _337
REMARK  138  A    between atoms: _337  and  _338
REMARK  139  A    between atoms: _341  and  _343
REMARK  140  A    between atoms: _343  and  _344
REMARK  141  A    between atoms: _347  and  _349
REMARK  142  A    between atoms: _349  and  _350
REMARK  143  A    between atoms: _353  and  _355
REMARK  144  A    between atoms: _355  and  _356
REMARK  145  A    between atoms: _355  and  _358
REMARK  146  A    between atoms: _358  and  _359
REMARK  147  A    between atoms: _359  and  _360
REMARK  148  A    between atoms: _360  and  _361
REMARK  149  A    between atoms: _370  and  _372
REMARK  150  A    between atoms: _372  and  _373
REMARK  151  A    between atoms: _372  and  _375
REMARK  152  A    between atoms: _375  and  _376
REMARK  153  A    between atoms: _381  and  _383
REMARK  154  A    between atoms: _383  and  _384
REMARK  155  A    between atoms: _383  and  _386
REMARK  156  A    between atoms: _388  and  _390
REMARK  157  A    between atoms: _390  and  _391
REMARK  158  A    between atoms: _390  and  _393
REMARK  159  A    between atoms: _393  and  _394
REMARK  160  A    between atoms: _394  and  _395
REMARK  161  A    between atoms: _397  and  _399
REMARK  162  A    between atoms: _399  and  _400
REMARK  163  A    between atoms: _399  and  _402
REMARK  164  A    between atoms: _402  and  _403
REMARK  165  A    between atoms: _406  and  _408
REMARK  166  A    between atoms: _408  and  _409
REMARK  167  A    between atoms: _408  and  _411
REMARK  168  A    between atoms: _411  and  _412
REMARK  169  A    between atoms: _415  and  _417
REMARK  170  A    between atoms: _417  and  _418
REMARK  171  A    between atoms: _417  and  _420
REMARK  172  A    between atoms: _420  and  _421
REMARK  173  A    between atoms: _421  and  _422
REMARK  174  A    between atoms: _422  and  _423
REMARK  175  A    between atoms: _423  and  _424
REMARK  176  A    between atoms: _428  and  _430
REMARK  177  A    between atoms: _430  and  _431
REMARK  178  A    between atoms: _430  and  _433
REMARK  179  A    between atoms: _436  and  _438
REMARK  180  A    between atoms: _438  and  _439
REMARK  181  A    between atoms: _442  and  _444
REMARK  182  A    between atoms: _444  and  _445
REMARK  183  A    between atoms: _444  and  _447
REMARK  184  A    between atoms: _447  and  _448
REMARK  185  A    between atoms: _451  and  _453
REMARK  186  A    between atoms: _453  and  _454
REMARK  187  A    between atoms: _453  and  _456
REMARK  188  A    between atoms: _456  and  _457
REMARK  189  A    between atoms: _463  and  _465
REMARK  190  A    between atoms: _465  and  _466
REMARK  191  A    between atoms: _465  and  _468
REMARK  192  A    between atoms: _468  and  _469
REMARK  193  A    between atoms: _472  and  _474
REMARK  194  A    between atoms: _474  and  _475
REMARK  195  A    between atoms: _478  and  _480
REMARK  196  A    between atoms: _480  and  _481
REMARK  197  A    between atoms: _480  and  _483
REMARK  198  A    between atoms: _483  and  _484
REMARK  199  A    between atoms: _484  and  _485
REMARK  200  A    between atoms: _485  and  _486
REMARK  201  A    between atoms: _495  and  _497
REMARK  202  A    between atoms: _497  and  _498
REMARK  203  A    between atoms: _497  and  _500
REMARK  204  A    between atoms: _500  and  _501
REMARK  205  A    between atoms: _504  and  _506
REMARK  206  A    between atoms: _506  and  _507
REMARK  207  A    between atoms: _506  and  _509
REMARK  208  A    between atoms: _509  and  _510
REMARK  209  A    between atoms: _510  and  _511
REMARK  210  A    between atoms: _513  and  _515
REMARK  211  A    between atoms: _515  and  _516
REMARK  212  A    between atoms: _515  and  _518
REMARK  213  A    between atoms: _518  and  _519
REMARK  214  A    between atoms: _524  and  _525
REMARK  215  A    between atoms: _527  and  _529
REMARK  216  A    between atoms: _529  and  _530
REMARK  217  A    between atoms: _529  and  _532
REMARK  218  A    between atoms: _532  and  _533
REMARK  219  A    between atoms: _536  and  _538
REMARK  220  A    between atoms: _538  and  _539
REMARK  221  A    between atoms: _538  and  _541
REMARK  222  A    between atoms: _541  and  _542
REMARK  223  A    between atoms: _542  and  _543
REMARK  224  A    between atoms: _543  and  _544
REMARK  225  A    between atoms: _544  and  _545
REMARK  226  A    between atoms: _549  and  _551
REMARK  227  A    between atoms: _551  and  _552
REMARK  228  A    between atoms: _551  and  _554
REMARK  229  A    between atoms: _554  and  _555
REMARK  230  A    between atoms: _560  and  _561
REMARK  231  A    between atoms: _563  and  _565
REMARK  232  A    between atoms: _565  and  _566
REMARK  233  A    between atoms: _565  and  _568
REMARK  234  A    between atoms: _568  and  _569
REMARK  235  A    between atoms: _574  and  _575
REMARK                            x       y       z     vdW  Elec       q    Type
REMARK                         _______ _______ _______ _____ _____    ______ ____
ROOT
ATOM      1  O   HOH     1      25.244   5.089   8.543  0.00  0.00    +0.000 OA
ENDROOT
TORSDOF 0
REMARK  Name = ../refined-set-2016/3zze/3zze_pocket.pdb
REMARK  235 active torsions:
REMARK  status: ('A' for Active; 'I' for Inactive)
REMARK    1  A    between atoms: _1  and  _3
REMARK    2  A    between atoms: _3  and  _4
REMARK    3  A    between atoms: _3  and  _6
REMARK    4  A    between atoms: _9  and  _11
REMARK    5  A    between atoms: _11  and  _12
REMARK    6  A    between atoms: _11  and  _14
REMARK    7  A    between atoms: _14  and  _15
REMARK    8  A    between atoms: _18  and  _20
REMARK    9  A    between atoms: _20  and  _21
REMARK   10  A    between atoms: _23  and  _25
REMARK   11  A    between atoms: _25  and  _26
REMARK   12  A    between atoms: _25  and  _28
REMARK   13  A    between atoms: _28  and  _29
REMARK   14  A    between atoms: _29  and  _30
REMARK   15  A    between atoms: _30  and  _31
REMARK   16  A    between atoms: _40  and  _42
REMARK   17  A    between atoms: _42  and  _43
REMARK   18  A    between atoms: _45  and  _47
REMARK   19  A    between atoms: _47  and  _48
REMARK   20  A    between atoms: _50  and  _52
REMARK   21  A    between atoms: _52  and  _53
REMARK   22  A    between atoms: _52  and  _55
REMARK   23  A    between atoms: _57  and  _59
REMARK   24  A    between atoms: _59  and  _60
REMARK   25  A    between atoms: _59  and  _62
REMARK   26  A    between atoms: _65  and  _67
REMARK   27  A    between atoms: _67  and  _68
REMARK   28  A    between atoms: _67  and  _70
REMARK   29  A    between atoms: _70  and  _71
REMARK   30  A    between atoms: _76  and  _77
REMARK   31  A    between atoms: _79  and  _81
REMARK   32  A    between atoms: _81  and  _82
REMARK   33  A    between atoms: _81  and  _84
REMARK   34  A    between atoms: _84  and  _85
REMARK   35  A    between atoms: _90  and  _92
REMARK   36  A    between atoms: _92  and  _93
REMARK   37  A    between atoms: _95  and  _97
REMARK   38  A    between atoms: _97  and  _98
REMARK   39  A    between atoms: _97  and  _100
REMARK   40  A    between atoms: _100  and  _101
REMARK   41  A    between atoms: _106  and  _108
REMARK   42  A    between atoms: _108  and  _109
REMARK   43  A    between atoms: _108  and  _111
REMARK   44  A    between atoms: _113  and  _115
REMARK   45  A    between atoms: _115  and  _116
REMARK   46  A    between atoms: _119  and  _121
REMARK   47  A    between atoms: _121  and  _122
REMARK   48  A    between atoms: _121  and  _124
REMARK   49  A    between atoms: _127  and  _129
REMARK   50  A    between atoms: _129  and  _130
REMARK   51  A    between atoms: _129  and  _132
REMARK   52  A    between atoms: _132  and  _133
REMARK   53  A    between atoms: _133  and  _134
REMARK   54  A    between atoms: _134  and  _135
REMARK   55  A    between atoms: _135  and  _136
REMARK   56  A    between atoms: _140  and  _142
REMARK   57  A    between atoms: _142  and  _143
REMARK   58  A    between atoms: _142  and  _145
REMARK   59  A    between atoms: _145  and  _146
REMARK   60  A    between atoms: _148  and  _150
REMARK   61  A    between atoms: _150  and  _151
REMARK   62  A    between atoms: _150  and  _153
REMARK   63  A    between atoms: _153  and  _154
REMARK   64  A    between atoms: _154  and  _155
REMARK   65  A    between atoms: _157  and  _159
REMARK   66  A    between atoms: _159  and  _160
REMARK   67  A    between atoms: _159  and  _162
REMARK   68  A    between atoms: _162  and  _163
REMARK   69  A    between atoms: _166  and  _168
REMARK   70  A    between atoms: _168  and  _169
REMARK   71  A    between atoms: _168  and  _171
REMARK   72  A    between atoms: _171  and  _172
REMARK   73  A    between atoms: _174  and  _176
REMARK   74  A    between atoms: _176  and  _177
REMARK   75  A    between atoms: _176  and  _179
REMARK   76  A    between atoms: _182  and  _184
REMARK   77  A    between atoms: _184  and  _185
REMARK   78  A    between atoms: _184  and  _187
REMARK   79  A    between atoms: _190  and  _192
REMARK   80  A    between atoms: _192  and  _193
REMARK   81  A    between atoms: _192  and  _195
REMARK   82  A    between atoms: _195  and  _196
REMARK   83  A    between atoms: _200  and  _201
REMARK   84  A    between atoms: _206  and  _208
REMARK   85  A    between atoms: _208  and  _209
REMARK   86  A    between atoms: _208  and  _211
REMARK   87  A    between atoms: _211  and  _212
REMARK   88  A    between atoms: _217  and  _218
REMARK   89  A    between atoms: _220  and  _222
REMARK   90  A    between atoms: _222  and  _223
REMARK   91  A    between atoms: _222  and  _225
REMARK   92  A    between atoms: _225  and  _226
REMARK   93  A    between atoms: _226  and  _227
REMARK   94  A    between atoms: _229  and  _231
REMARK   95  A    between atoms: _231  and  _232
REMARK   96  A    between atoms: _231  and  _234
REMARK   97  A    between atoms: _234  and  _235
REMARK   98  A    between atoms: _235  and  _236
REMARK   99  A    between atoms: _236  and  _237
REMARK  100  A    between atoms: _237  and  _238
REMARK  101  A    between atoms: _242  and  _244
REMARK  102  A    between atoms: _244  and  _245
REMARK  103  A    between atoms: _244  and  _247
REMARK  104  A    between atoms: _247  and  _248
REMARK  105  A    between atoms: _253  and  _255
REMARK  106  A    between atoms: _255  and  _256
REMARK  107  A    between atoms: _258  and  _260
REMARK  108  A    between atoms: _260  and  _261
REMARK  109  A    between atoms: _260  and  _263
REMARK  110  A    between atoms: _263  and  _264
REMARK  111  A    between atoms: _267  and  _269
REMARK  112  A    between atoms: _269  and  _270
REMARK  113  A    between atoms: _269  and  _272
REMARK  114  A    between atoms: _272  and  _273
REMARK  115  A    between atoms: _276  and  _278
REMARK  116  A    between atoms: _278  and  _279
REMARK  117  A    between atoms: _278  and  _281
REMARK  118  A    between atoms: _281  and  _282
REMARK  119  A    between atoms: _282  and  _283
REMARK  120  A    between atoms: _283  and  _284
REMARK  121  A    between atoms: _293  and  _295
REMARK  122  A    between atoms: _295  and  _296
REMARK  123  A    between atoms: _295  and  _298
REMARK  124  A    between atoms: _298  and  _299
REMARK  125  A    between atoms: _304  and  _306
REMARK  126  A    between atoms: _306  and  _307
REMARK  127  A    between atoms: _306  and  _309
REMARK  128  A    between atoms: _309  and  _310
REMARK  129  A    between atoms: _310  and  _311
REMARK  130  A    between atoms: _311  and  _312
REMARK  131  A    between atoms: _321  and  _323
REMARK  132  A    between atoms: _323  and  _324
REMARK  133  A    between atoms: _323  and  _326
REMARK  134  A    between atoms: _326  and  _327
REMARK  135  A    between atoms: _332  and  _334
REMARK  136  A    between atoms: _334  and  _335
REMARK  137  A    between atoms: _334  and  _337
REMARK  138  A    between atoms: _337  and  _338
REMARK  139  A    between atoms: _341  and  _343
REMARK  140  A    between atoms: _343  and  _344
REMARK  141  A    between atoms: _347  and  _349
REMARK  142  A    between atoms: _349  and  _350
REMARK  143  A    between atoms: _353  and  _355
REMARK  144  A    between atoms: _355  and  _356
REMARK  145  A    between atoms: _355  and  _358
REMARK  146  A    between atoms: _358  and  _359
REMARK  147  A    between atoms: _359  and  _360
REMARK  148  A    between atoms: _360  and  _361
REMARK  149  A    between atoms: _370  and  _372
REMARK  150  A    between atoms: _372  and  _373
REMARK  151  A    between atoms: _372  and  _375
REMARK  152  A    between atoms: _375  and  _376
REMARK  153  A    between atoms: _381  and  _383
REMARK  154  A    between atoms: _383  and  _384
REMARK  155  A    between atoms: _383  and  _386
REMARK  156  A    between atoms: _388  and  _390
REMARK  157  A    between atoms: _390  and  _391
REMARK  158  A    between atoms: _390  and  _393
REMARK  159  A    between atoms: _393  and  _394
REMARK  160  A    between atoms: _394  and  _395
REMARK  161  A    between atoms: _397  and  _399
REMARK  162  A    between atoms: _399  and  _400
REMARK  163  A    between atoms: _399  and  _402
REMARK  164  A    between atoms: _402  and  _403
REMARK  165  A    between atoms: _406  and  _408
REMARK  166  A    between atoms: _408  and  _409
REMARK  167  A    between atoms: _408  and  _411
REMARK  168  A    between atoms: _411  and  _412
REMARK  169  A    between atoms: _415  and  _417
REMARK  170  A    between atoms: _417  and  _418
REMARK  171  A    between atoms: _417  and  _420
REMARK  172  A    between atoms: _420  and  _421
REMARK  173  A    between atoms: _421  and  _422
REMARK  174  A    between atoms: _422  and  _423
REMARK  175  A    between atoms: _423  and  _424
REMARK  176  A    between atoms: _428  and  _430
REMARK  177  A    between atoms: _430  and  _431
REMARK  178  A    between atoms: _430  and  _433
REMARK  179  A    between atoms: _436  and  _438
REMARK  180  A    between atoms: _438  and  _439
REMARK  181  A    between atoms: _442  and  _444
REMARK  182  A    between atoms: _444  and  _445
REMARK  183  A    between atoms: _444  and  _447
REMARK  184  A    between atoms: _447  and  _448
REMARK  185  A    between atoms: _451  and  _453
REMARK  186  A    between atoms: _453  and  _454
REMARK  187  A    between atoms: _453  and  _456
REMARK  188  A    between atoms: _456  and  _457
REMARK  189  A    between atoms: _463  and  _465
REMARK  190  A    between atoms: _465  and  _466
REMARK  191  A    between atoms: _465  and  _468
REMARK  192  A    between atoms: _468  and  _469
REMARK  193  A    between atoms: _472  and  _474
REMARK  194  A    between atoms: _474  and  _475
REMARK  195  A    between atoms: _478  and  _480
REMARK  196  A    between atoms: _480  and  _481
REMARK  197  A    between atoms: _480  and  _483
REMARK  198  A    between atoms: _483  and  _484
REMARK  199  A    between atoms: _484  and  _485
REMARK  200  A    between atoms: _485  and  _486
REMARK  201  A    between atoms: _495  and  _497
REMARK  202  A    between atoms: _497  and  _498
REMARK  203  A    between atoms: _497  and  _500
REMARK  204  A    between atoms: _500  and  _501
REMARK  205  A    between atoms: _504  and  _506
REMARK  206  A    between atoms: _506  and  _507
REMARK  207  A    between atoms: _506  and  _509
REMARK  208  A    between atoms: _509  and  _510
REMARK  209  A    between atoms: _510  and  _511
REMARK  210  A    between atoms: _513  and  _515
REMARK  211  A    between atoms: _515  and  _516
REMARK  212  A    between atoms: _515  and  _518
REMARK  213  A    between atoms: _518  and  _519
REMARK  214  A    between atoms: _524  and  _525
REMARK  215  A    between atoms: _527  and  _529
REMARK  216  A    between atoms: _529  and  _530
REMARK  217  A    between atoms: _529  and  _532
REMARK  218  A    between atoms: _532  and  _533
REMARK  219  A    between atoms: _536  and  _538
REMARK  220  A    between atoms: _538  and  _539
REMARK  221  A    between atoms: _538  and  _541
REMARK  222  A    between atoms: _541  and  _542
REMARK  223  A    between atoms: _542  and  _543
REMARK  224  A    between atoms: _543  and  _544
REMARK  225  A    between atoms: _544  and  _545
REMARK  226  A    between atoms: _549  and  _551
REMARK  227  A    between atoms: _551  and  _552
REMARK  228  A    between atoms: _551  and  _554
REMARK  229  A    between atoms: _554  and  _555
REMARK  230  A    between atoms: _560  and  _561
REMARK  231  A    between atoms: _563  and  _565
REMARK  232  A    between atoms: _565  and  _566
REMARK  233  A    between atoms: _565  and  _568
REMARK  234  A    between atoms: _568  and  _569
REMARK  235  A    between atoms: _574  and  _575
REMARK                            x       y       z     vdW  Elec       q    Type
REMARK                         _______ _______ _______ _____ _____    ______ ____
ROOT
ATOM      1  O   HOH     1       7.555  10.238   7.946  0.00  0.00    +0.000 OA
ENDROOT
TORSDOF 0
REMARK  Name = ../refined-set-2016/3zze/3zze_pocket.pdb
REMARK  235 active torsions:
REMARK  status: ('A' for Active; 'I' for Inactive)
REMARK    1  A    between atoms: _1  and  _3
REMARK    2  A    between atoms: _3  and  _4
REMARK    3  A    between atoms: _3  and  _6
REMARK    4  A    between atoms: _9  and  _11
REMARK    5  A    between atoms: _11  and  _12
REMARK    6  A    between atoms: _11  and  _14
REMARK    7  A    between atoms: _14  and  _15
REMARK    8  A    between atoms: _18  and  _20
REMARK    9  A    between atoms: _20  and  _21
REMARK   10  A    between atoms: _23  and  _25
REMARK   11  A    between atoms: _25  and  _26
REMARK   12  A    between atoms: _25  and  _28
REMARK   13  A    between atoms: _28  and  _29
REMARK   14  A    between atoms: _29  and  _30
REMARK   15  A    between atoms: _30  and  _31
REMARK   16  A    between atoms: _40  and  _42
REMARK   17  A    between atoms: _42  and  _43
REMARK   18  A    between atoms: _45  and  _47
REMARK   19  A    between atoms: _47  and  _48
REMARK   20  A    between atoms: _50  and  _52
REMARK   21  A    between atoms: _52  and  _53
REMARK   22  A    between atoms: _52  and  _55
REMARK   23  A    between atoms: _57  and  _59
REMARK   24  A    between atoms: _59  and  _60
REMARK   25  A    between atoms: _59  and  _62
REMARK   26  A    between atoms: _65  and  _67
REMARK   27  A    between atoms: _67  and  _68
REMARK   28  A    between atoms: _67  and  _70
REMARK   29  A    between atoms: _70  and  _71
REMARK   30  A    between atoms: _76  and  _77
REMARK   31  A    between atoms: _79  and  _81
REMARK   32  A    between atoms: _81  and  _82
REMARK   33  A    between atoms: _81  and  _84
REMARK   34  A    between atoms: _84  and  _85
REMARK   35  A    between atoms: _90  and  _92
REMARK   36  A    between atoms: _92  and  _93
REMARK   37  A    between atoms: _95  and  _97
REMARK   38  A    between atoms: _97  and  _98
REMARK   39  A    between atoms: _97  and  _100
REMARK   40  A    between atoms: _100  and  _101
REMARK   41  A    between atoms: _106  and  _108
REMARK   42  A    between atoms: _108  and  _109
REMARK   43  A    between atoms: _108  and  _111
REMARK   44  A    between atoms: _113  and  _115
REMARK   45  A    between atoms: _115  and  _116
REMARK   46  A    between atoms: _119  and  _121
REMARK   47  A    between atoms: _121  and  _122
REMARK   48  A    between atoms: _121  and  _124
REMARK   49  A    between atoms: _127  and  _129
REMARK   50  A    between atoms: _129  and  _130
REMARK   51  A    between atoms: _129  and  _132
REMARK   52  A    between atoms: _132  and  _133
REMARK   53  A    between atoms: _133  and  _134
REMARK   54  A    between atoms: _134  and  _135
REMARK   55  A    between atoms: _135  and  _136
REMARK   56  A    between atoms: _140  and  _142
REMARK   57  A    between atoms: _142  and  _143
REMARK   58  A    between atoms: _142  and  _145
REMARK   59  A    between atoms: _145  and  _146
REMARK   60  A    between atoms: _148  and  _150
REMARK   61  A    between atoms: _150  and  _151
REMARK   62  A    between atoms: _150  and  _153
REMARK   63  A    between atoms: _153  and  _154
REMARK   64  A    between atoms: _154  and  _155
REMARK   65  A    between atoms: _157  and  _159
REMARK   66  A    between atoms: _159  and  _160
REMARK   67  A    between atoms: _159  and  _162
REMARK   68  A    between atoms: _162  and  _163
REMARK   69  A    between atoms: _166  and  _168
REMARK   70  A    between atoms: _168  and  _169
REMARK   71  A    between atoms: _168  and  _171
REMARK   72  A    between atoms: _171  and  _172
REMARK   73  A    between atoms: _174  and  _176
REMARK   74  A    between atoms: _176  and  _177
REMARK   75  A    between atoms: _176  and  _179
REMARK   76  A    between atoms: _182  and  _184
REMARK   77  A    between atoms: _184  and  _185
REMARK   78  A    between atoms: _184  and  _187
REMARK   79  A    between atoms: _190  and  _192
REMARK   80  A    between atoms: _192  and  _193
REMARK   81  A    between atoms: _192  and  _195
REMARK   82  A    between atoms: _195  and  _196
REMARK   83  A    between atoms: _200  and  _201
REMARK   84  A    between atoms: _206  and  _208
REMARK   85  A    between atoms: _208  and  _209
REMARK   86  A    between atoms: _208  and  _211
REMARK   87  A    between atoms: _211  and  _212
REMARK   88  A    between atoms: _217  and  _218
REMARK   89  A    between atoms: _220  and  _222
REMARK   90  A    between atoms: _222  and  _223
REMARK   91  A    between atoms: _222  and  _225
REMARK   92  A    between atoms: _225  and  _226
REMARK   93  A    between atoms: _226  and  _227
REMARK   94  A    between atoms: _229  and  _231
REMARK   95  A    between atoms: _231  and  _232
REMARK   96  A    between atoms: _231  and  _234
REMARK   97  A    between atoms: _234  and  _235
REMARK   98  A    between atoms: _235  and  _236
REMARK   99  A    between atoms: _236  and  _237
REMARK  100  A    between atoms: _237  and  _238
REMARK  101  A    between atoms: _242  and  _244
REMARK  102  A    between atoms: _244  and  _245
REMARK  103  A    between atoms: _244  and  _247
REMARK  104  A    between atoms: _247  and  _248
REMARK  105  A    between atoms: _253  and  _255
REMARK  106  A    between atoms: _255  and  _256
REMARK  107  A    between atoms: _258  and  _260
REMARK  108  A    between atoms: _260  and  _261
REMARK  109  A    between atoms: _260  and  _263
REMARK  110  A    between atoms: _263  and  _264
REMARK  111  A    between atoms: _267  and  _269
REMARK  112  A    between atoms: _269  and  _270
REMARK  113  A    between atoms: _269  and  _272
REMARK  114  A    between atoms: _272  and  _273
REMARK  115  A    between atoms: _276  and  _278
REMARK  116  A    between atoms: _278  and  _279
REMARK  117  A    between atoms: _278  and  _281
REMARK  118  A    between atoms: _281  and  _282
REMARK  119  A    between atoms: _282  and  _283
REMARK  120  A    between atoms: _283  and  _284
REMARK  121  A    between atoms: _293  and  _295
REMARK  122  A    between atoms: _295  and  _296
REMARK  123  A    between atoms: _295  and  _298
REMARK  124  A    between atoms: _298  and  _299
REMARK  125  A    between atoms: _304  and  _306
REMARK  126  A    between atoms: _306  and  _307
REMARK  127  A    between atoms: _306  and  _309
REMARK  128  A    between atoms: _309  and  _310
REMARK  129  A    between atoms: _310  and  _311
REMARK  130  A    between atoms: _311  and  _312
REMARK  131  A    between atoms: _321  and  _323
REMARK  132  A    between atoms: _323  and  _324
REMARK  133  A    between atoms: _323  and  _326
REMARK  134  A    between atoms: _326  and  _327
REMARK  135  A    between atoms: _332  and  _334
REMARK  136  A    between atoms: _334  and  _335
REMARK  137  A    between atoms: _334  and  _337
REMARK  138  A    between atoms: _337  and  _338
REMARK  139  A    between atoms: _341  and  _343
REMARK  140  A    between atoms: _343  and  _344
REMARK  141  A    between atoms: _347  and  _349
REMARK  142  A    between atoms: _349  and  _350
REMARK  143  A    between atoms: _353  and  _355
REMARK  144  A    between atoms: _355  and  _356
REMARK  145  A    between atoms: _355  and  _358
REMARK  146  A    between atoms: _358  and  _359
REMARK  147  A    between atoms: _359  and  _360
REMARK  148  A    between atoms: _360  and  _361
REMARK  149  A    between atoms: _370  and  _372
REMARK  150  A    between atoms: _372  and  _373
REMARK  151  A    between atoms: _372  and  _375
REMARK  152  A    between atoms: _375  and  _376
REMARK  153  A    between atoms: _381  and  _383
REMARK  154  A    between atoms: _383  and  _384
REMARK  155  A    between atoms: _383  and  _386
REMARK  156  A    between atoms: _388  and  _390
REMARK  157  A    between atoms: _390  and  _391
REMARK  158  A    between atoms: _390  and  _393
REMARK  159  A    between atoms: _393  and  _394
REMARK  160  A    between atoms: _394  and  _395
REMARK  161  A    between atoms: _397  and  _399
REMARK  162  A    between atoms: _399  and  _400
REMARK  163  A    between atoms: _399  and  _402
REMARK  164  A    between atoms: _402  and  _403
REMARK  165  A    between atoms: _406  and  _408
REMARK  166  A    between atoms: _408  and  _409
REMARK  167  A    between atoms: _408  and  _411
REMARK  168  A    between atoms: _411  and  _412
REMARK  169  A    between atoms: _415  and  _417
REMARK  170  A    between atoms: _417  and  _418
REMARK  171  A    between atoms: _417  and  _420
REMARK  172  A    between atoms: _420  and  _421
REMARK  173  A    between atoms: _421  and  _422
REMARK  174  A    between atoms: _422  and  _423
REMARK  175  A    between atoms: _423  and  _424
REMARK  176  A    between atoms: _428  and  _430
REMARK  177  A    between atoms: _430  and  _431
REMARK  178  A    between atoms: _430  and  _433
REMARK  179  A    between atoms: _436  and  _438
REMARK  180  A    between atoms: _438  and  _439
REMARK  181  A    between atoms: _442  and  _444
REMARK  182  A    between atoms: _444  and  _445
REMARK  183  A    between atoms: _444  and  _447
REMARK  184  A    between atoms: _447  and  _448
REMARK  185  A    between atoms: _451  and  _453
REMARK  186  A    between atoms: _453  and  _454
REMARK  187  A    between atoms: _453  and  _456
REMARK  188  A    between atoms: _456  and  _457
REMARK  189  A    between atoms: _463  and  _465
REMARK  190  A    between atoms: _465  and  _466
REMARK  191  A    between atoms: _465  and  _468
REMARK  192  A    between atoms: _468  and  _469
REMARK  193  A    between atoms: _472  and  _474
REMARK  194  A    between atoms: _474  and  _475
REMARK  195  A    between atoms: _478  and  _480
REMARK  196  A    between atoms: _480  and  _481
REMARK  197  A    between atoms: _480  and  _483
REMARK  198  A    between atoms: _483  and  _484
REMARK  199  A    between atoms: _484  and  _485
REMARK  200  A    between atoms: _485  and  _486
REMARK  201  A    between atoms: _495  and  _497
REMARK  202  A    between atoms: _497  and  _498
REMARK  203  A    between atoms: _497  and  _500
REMARK  204  A    between atoms: _500  and  _501
REMARK  205  A    between atoms: _504  and  _506
REMARK  206  A    between atoms: _506  and  _507
REMARK  207  A    between atoms: _506  and  _509
REMARK  208  A    between atoms: _509  and  _510
REMARK  209  A    between atoms: _510  and  _511
REMARK  210  A    between atoms: _513  and  _515
REMARK  211  A    between atoms: _515  and  _516
REMARK  212  A    between atoms: _515  and  _518
REMARK  213  A    between atoms: _518  and  _519
REMARK  214  A    between atoms: _524  and  _525
REMARK  215  A    between atoms: _527  and  _529
REMARK  216  A    between atoms: _529  and  _530
REMARK  217  A    between atoms: _529  and  _532
REMARK  218  A    between atoms: _532  and  _533
REMARK  219  A    between atoms: _536  and  _538
REMARK  220  A    between atoms: _538  and  _539
REMARK  221  A    between atoms: _538  and  _541
REMARK  222  A    between atoms: _541  and  _542
REMARK  223  A    between atoms: _542  and  _543
REMARK  224  A    between atoms: _543  and  _544
REMARK  225  A    between atoms: _544  and  _545
REMARK  226  A    between atoms: _549  and  _551
REMARK  227  A    between atoms: _551  and  _552
REMARK  228  A    between atoms: _551  and  _554
REMARK  229  A    between atoms: _554  and  _555
REMARK  230  A    between atoms: _560  and  _561
REMARK  231  A    between atoms: _563  and  _565
REMARK  232  A    between atoms: _565  and  _566
REMARK  233  A    between atoms: _565  and  _568
REMARK  234  A    between atoms: _568  and  _569
REMARK  235  A    between atoms: _574  and  _575
REMARK                            x       y       z     vdW  Elec       q    Type
REMARK                         _______ _______ _______ _____ _____    ______ ____
ROOT
ATOM      1  O   HOH     1      12.344   9.043   0.567  0.00  0.00    +0.000 OA
ENDROOT
TORSDOF 0
REMARK  Name = ../refined-set-2016/3zze/3zze_pocket.pdb
REMARK  235 active torsions:
REMARK  status: ('A' for Active; 'I' for Inactive)
REMARK    1  A    between atoms: _1  and  _3
REMARK    2  A    between atoms: _3  and  _4
REMARK    3  A    between atoms: _3  and  _6
REMARK    4  A    between atoms: _9  and  _11
REMARK    5  A    between atoms: _11  and  _12
REMARK    6  A    between atoms: _11  and  _14
REMARK    7  A    between atoms: _14  and  _15
REMARK    8  A    between atoms: _18  and  _20
REMARK    9  A    between atoms: _20  and  _21
REMARK   10  A    between atoms: _23  and  _25
REMARK   11  A    between atoms: _25  and  _26
REMARK   12  A    between atoms: _25  and  _28
REMARK   13  A    between atoms: _28  and  _29
REMARK   14  A    between atoms: _29  and  _30
REMARK   15  A    between atoms: _30  and  _31
REMARK   16  A    between atoms: _40  and  _42
REMARK   17  A    between atoms: _42  and  _43
REMARK   18  A    between atoms: _45  and  _47
REMARK   19  A    between atoms: _47  and  _48
REMARK   20  A    between atoms: _50  and  _52
REMARK   21  A    between atoms: _52  and  _53
REMARK   22  A    between atoms: _52  and  _55
REMARK   23  A    between atoms: _57  and  _59
REMARK   24  A    between atoms: _59  and  _60
REMARK   25  A    between atoms: _59  and  _62
REMARK   26  A    between atoms: _65  and  _67
REMARK   27  A    between atoms: _67  and  _68
REMARK   28  A    between atoms: _67  and  _70
REMARK   29  A    between atoms: _70  and  _71
REMARK   30  A    between atoms: _76  and  _77
REMARK   31  A    between atoms: _79  and  _81
REMARK   32  A    between atoms: _81  and  _82
REMARK   33  A    between atoms: _81  and  _84
REMARK   34  A    between atoms: _84  and  _85
REMARK   35  A    between atoms: _90  and  _92
REMARK   36  A    between atoms: _92  and  _93
REMARK   37  A    between atoms: _95  and  _97
REMARK   38  A    between atoms: _97  and  _98
REMARK   39  A    between atoms: _97  and  _100
REMARK   40  A    between atoms: _100  and  _101
REMARK   41  A    between atoms: _106  and  _108
REMARK   42  A    between atoms: _108  and  _109
REMARK   43  A    between atoms: _108  and  _111
REMARK   44  A    between atoms: _113  and  _115
REMARK   45  A    between atoms: _115  and  _116
REMARK   46  A    between atoms: _119  and  _121
REMARK   47  A    between atoms: _121  and  _122
REMARK   48  A    between atoms: _121  and  _124
REMARK   49  A    between atoms: _127  and  _129
REMARK   50  A    between atoms: _129  and  _130
REMARK   51  A    between atoms: _129  and  _132
REMARK   52  A    between atoms: _132  and  _133
REMARK   53  A    between atoms: _133  and  _134
REMARK   54  A    between atoms: _134  and  _135
REMARK   55  A    between atoms: _135  and  _136
REMARK   56  A    between atoms: _140  and  _142
REMARK   57  A    between atoms: _142  and  _143
REMARK   58  A    between atoms: _142  and  _145
REMARK   59  A    between atoms: _145  and  _146
REMARK   60  A    between atoms: _148  and  _150
REMARK   61  A    between atoms: _150  and  _151
REMARK   62  A    between atoms: _150  and  _153
REMARK   63  A    between atoms: _153  and  _154
REMARK   64  A    between atoms: _154  and  _155
REMARK   65  A    between atoms: _157  and  _159
REMARK   66  A    between atoms: _159  and  _160
REMARK   67  A    between atoms: _159  and  _162
REMARK   68  A    between atoms: _162  and  _163
REMARK   69  A    between atoms: _166  and  _168
REMARK   70  A    between atoms: _168  and  _169
REMARK   71  A    between atoms: _168  and  _171
REMARK   72  A    between atoms: _171  and  _172
REMARK   73  A    between atoms: _174  and  _176
REMARK   74  A    between atoms: _176  and  _177
REMARK   75  A    between atoms: _176  and  _179
REMARK   76  A    between atoms: _182  and  _184
REMARK   77  A    between atoms: _184  and  _185
REMARK   78  A    between atoms: _184  and  _187
REMARK   79  A    between atoms: _190  and  _192
REMARK   80  A    between atoms: _192  and  _193
REMARK   81  A    between atoms: _192  and  _195
REMARK   82  A    between atoms: _195  and  _196
REMARK   83  A    between atoms: _200  and  _201
REMARK   84  A    between atoms: _206  and  _208
REMARK   85  A    between atoms: _208  and  _209
REMARK   86  A    between atoms: _208  and  _211
REMARK   87  A    between atoms: _211  and  _212
REMARK   88  A    between atoms: _217  and  _218
REMARK   89  A    between atoms: _220  and  _222
REMARK   90  A    between atoms: _222  and  _223
REMARK   91  A    between atoms: _222  and  _225
REMARK   92  A    between atoms: _225  and  _226
REMARK   93  A    between atoms: _226  and  _227
REMARK   94  A    between atoms: _229  and  _231
REMARK   95  A    between atoms: _231  and  _232
REMARK   96  A    between atoms: _231  and  _234
REMARK   97  A    between atoms: _234  and  _235
REMARK   98  A    between atoms: _235  and  _236
REMARK   99  A    between atoms: _236  and  _237
REMARK  100  A    between atoms: _237  and  _238
REMARK  101  A    between atoms: _242  and  _244
REMARK  102  A    between atoms: _244  and  _245
REMARK  103  A    between atoms: _244  and  _247
REMARK  104  A    between atoms: _247  and  _248
REMARK  105  A    between atoms: _253  and  _255
REMARK  106  A    between atoms: _255  and  _256
REMARK  107  A    between atoms: _258  and  _260
REMARK  108  A    between atoms: _260  and  _261
REMARK  109  A    between atoms: _260  and  _263
REMARK  110  A    between atoms: _263  and  _264
REMARK  111  A    between atoms: _267  and  _269
REMARK  112  A    between atoms: _269  and  _270
REMARK  113  A    between atoms: _269  and  _272
REMARK  114  A    between atoms: _272  and  _273
REMARK  115  A    between atoms: _276  and  _278
REMARK  116  A    between atoms: _278  and  _279
REMARK  117  A    between atoms: _278  and  _281
REMARK  118  A    between atoms: _281  and  _282
REMARK  119  A    between atoms: _282  and  _283
REMARK  120  A    between atoms: _283  and  _284
REMARK  121  A    between atoms: _293  and  _295
REMARK  122  A    between atoms: _295  and  _296
REMARK  123  A    between atoms: _295  and  _298
REMARK  124  A    between atoms: _298  and  _299
REMARK  125  A    between atoms: _304  and  _306
REMARK  126  A    between atoms: _306  and  _307
REMARK  127  A    between atoms: _306  and  _309
REMARK  128  A    between atoms: _309  and  _310
REMARK  129  A    between atoms: _310  and  _311
REMARK  130  A    between atoms: _311  and  _312
REMARK  131  A    between atoms: _321  and  _323
REMARK  132  A    between atoms: _323  and  _324
REMARK  133  A    between atoms: _323  and  _326
REMARK  134  A    between atoms: _326  and  _327
REMARK  135  A    between atoms: _332  and  _334
REMARK  136  A    between atoms: _334  and  _335
REMARK  137  A    between atoms: _334  and  _337
REMARK  138  A    between atoms: _337  and  _338
REMARK  139  A    between atoms: _341  and  _343
REMARK  140  A    between atoms: _343  and  _344
REMARK  141  A    between atoms: _347  and  _349
REMARK  142  A    between atoms: _349  and  _350
REMARK  143  A    between atoms: _353  and  _355
REMARK  144  A    between atoms: _355  and  _356
REMARK  145  A    between atoms: _355  and  _358
REMARK  146  A    between atoms: _358  and  _359
REMARK  147  A    between atoms: _359  and  _360
REMARK  148  A    between atoms: _360  and  _361
REMARK  149  A    between atoms: _370  and  _372
REMARK  150  A    between atoms: _372  and  _373
REMARK  151  A    between atoms: _372  and  _375
REMARK  152  A    between atoms: _375  and  _376
REMARK  153  A    between atoms: _381  and  _383
REMARK  154  A    between atoms: _383  and  _384
REMARK  155  A    between atoms: _383  and  _386
REMARK  156  A    between atoms: _388  and  _390
REMARK  157  A    between atoms: _390  and  _391
REMARK  158  A    between atoms: _390  and  _393
REMARK  159  A    between atoms: _393  and  _394
REMARK  160  A    between atoms: _394  and  _395
REMARK  161  A    between atoms: _397  and  _399
REMARK  162  A    between atoms: _399  and  _400
REMARK  163  A    between atoms: _399  and  _402
REMARK  164  A    between atoms: _402  and  _403
REMARK  165  A    between atoms: _406  and  _408
REMARK  166  A    between atoms: _408  and  _409
REMARK  167  A    between atoms: _408  and  _411
REMARK  168  A    between atoms: _411  and  _412
REMARK  169  A    between atoms: _415  and  _417
REMARK  170  A    between atoms: _417  and  _418
REMARK  171  A    between atoms: _417  and  _420
REMARK  172  A    between atoms: _420  and  _421
REMARK  173  A    between atoms: _421  and  _422
REMARK  174  A    between atoms: _422  and  _423
REMARK  175  A    between atoms: _423  and  _424
REMARK  176  A    between atoms: _428  and  _430
REMARK  177  A    between atoms: _430  and  _431
REMARK  178  A    between atoms: _430  and  _433
REMARK  179  A    between atoms: _436  and  _438
REMARK  180  A    between atoms: _438  and  _439
REMARK  181  A    between atoms: _442  and  _444
REMARK  182  A    between atoms: _444  and  _445
REMARK  183  A    between atoms: _444  and  _447
REMARK  184  A    between atoms: _447  and  _448
REMARK  185  A    between atoms: _451  and  _453
REMARK  186  A    between atoms: _453  and  _454
REMARK  187  A    between atoms: _453  and  _456
REMARK  188  A    between atoms: _456  and  _457
REMARK  189  A    between atoms: _463  and  _465
REMARK  190  A    between atoms: _465  and  _466
REMARK  191  A    between atoms: _465  and  _468
REMARK  192  A    between atoms: _468  and  _469
REMARK  193  A    between atoms: _472  and  _474
REMARK  194  A    between atoms: _474  and  _475
REMARK  195  A    between atoms: _478  and  _480
REMARK  196  A    between atoms: _480  and  _481
REMARK  197  A    between atoms: _480  and  _483
REMARK  198  A    between atoms: _483  and  _484
REMARK  199  A    between atoms: _484  and  _485
REMARK  200  A    between atoms: _485  and  _486
REMARK  201  A    between atoms: _495  and  _497
REMARK  202  A    between atoms: _497  and  _498
REMARK  203  A    between atoms: _497  and  _500
REMARK  204  A    between atoms: _500  and  _501
REMARK  205  A    between atoms: _504  and  _506
REMARK  206  A    between atoms: _506  and  _507
REMARK  207  A    between atoms: _506  and  _509
REMARK  208  A    between atoms: _509  and  _510
REMARK  209  A    between atoms: _510  and  _511
REMARK  210  A    between atoms: _513  and  _515
REMARK  211  A    between atoms: _515  and  _516
REMARK  212  A    between atoms: _515  and  _518
REMARK  213  A    between atoms: _518  and  _519
REMARK  214  A    between atoms: _524  and  _525
REMARK  215  A    between atoms: _527  and  _529
REMARK  216  A    between atoms: _529  and  _530
REMARK  217  A    between atoms: _529  and  _532
REMARK  218  A    between atoms: _532  and  _533
REMARK  219  A    between atoms: _536  and  _538
REMARK  220  A    between atoms: _538  and  _539
REMARK  221  A    between atoms: _538  and  _541
REMARK  222  A    between atoms: _541  and  _542
REMARK  223  A    between atoms: _542  and  _543
REMARK  224  A    between atoms: _543  and  _544
REMARK  225  A    between atoms: _544  and  _545
REMARK  226  A    between atoms: _549  and  _551
REMARK  227  A    between atoms: _551  and  _552
REMARK  228  A    between atoms: _551  and  _554
REMARK  229  A    between atoms: _554  and  _555
REMARK  230  A    between atoms: _560  and  _561
REMARK  231  A    between atoms: _563  and  _565
REMARK  232  A    between atoms: _565  and  _566
REMARK  233  A    between atoms: _565  and  _568
REMARK  234  A    between atoms: _568  and  _569
REMARK  235  A    between atoms: _574  and  _575
REMARK                            x       y       z     vdW  Elec       q    Type
REMARK                         _______ _______ _______ _____ _____    ______ ____
ROOT
ATOM      1  O   HOH     1      13.303   9.458   3.272  0.00  0.00    +0.000 OA
ENDROOT
TORSDOF 0
REMARK  Name = ../refined-set-2016/3zze/3zze_pocket.pdb
REMARK  235 active torsions:
REMARK  status: ('A' for Active; 'I' for Inactive)
REMARK    1  A    between atoms: _1  and  _3
REMARK    2  A    between atoms: _3  and  _4
REMARK    3  A    between atoms: _3  and  _6
REMARK    4  A    between atoms: _9  and  _11
REMARK    5  A    between atoms: _11  and  _12
REMARK    6  A    between atoms: _11  and  _14
REMARK    7  A    between atoms: _14  and  _15
REMARK    8  A    between atoms: _18  and  _20
REMARK    9  A    between atoms: _20  and  _21
REMARK   10  A    between atoms: _23  and  _25
REMARK   11  A    between atoms: _25  and  _26
REMARK   12  A    between atoms: _25  and  _28
REMARK   13  A    between atoms: _28  and  _29
REMARK   14  A    between atoms: _29  and  _30
REMARK   15  A    between atoms: _30  and  _31
REMARK   16  A    between atoms: _40  and  _42
REMARK   17  A    between atoms: _42  and  _43
REMARK   18  A    between atoms: _45  and  _47
REMARK   19  A    between atoms: _47  and  _48
REMARK   20  A    between atoms: _50  and  _52
REMARK   21  A    between atoms: _52  and  _53
REMARK   22  A    between atoms: _52  and  _55
REMARK   23  A    between atoms: _57  and  _59
REMARK   24  A    between atoms: _59  and  _60
REMARK   25  A    between atoms: _59  and  _62
REMARK   26  A    between atoms: _65  and  _67
REMARK   27  A    between atoms: _67  and  _68
REMARK   28  A    between atoms: _67  and  _70
REMARK   29  A    between atoms: _70  and  _71
REMARK   30  A    between atoms: _76  and  _77
REMARK   31  A    between atoms: _79  and  _81
REMARK   32  A    between atoms: _81  and  _82
REMARK   33  A    between atoms: _81  and  _84
REMARK   34  A    between atoms: _84  and  _85
REMARK   35  A    between atoms: _90  and  _92
REMARK   36  A    between atoms: _92  and  _93
REMARK   37  A    between atoms: _95  and  _97
REMARK   38  A    between atoms: _97  and  _98
REMARK   39  A    between atoms: _97  and  _100
REMARK   40  A    between atoms: _100  and  _101
REMARK   41  A    between atoms: _106  and  _108
REMARK   42  A    between atoms: _108  and  _109
REMARK   43  A    between atoms: _108  and  _111
REMARK   44  A    between atoms: _113  and  _115
REMARK   45  A    between atoms: _115  and  _116
REMARK   46  A    between atoms: _119  and  _121
REMARK   47  A    between atoms: _121  and  _122
REMARK   48  A    between atoms: _121  and  _124
REMARK   49  A    between atoms: _127  and  _129
REMARK   50  A    between atoms: _129  and  _130
REMARK   51  A    between atoms: _129  and  _132
REMARK   52  A    between atoms: _132  and  _133
REMARK   53  A    between atoms: _133  and  _134
REMARK   54  A    between atoms: _134  and  _135
REMARK   55  A    between atoms: _135  and  _136
REMARK   56  A    between atoms: _140  and  _142
REMARK   57  A    between atoms: _142  and  _143
REMARK   58  A    between atoms: _142  and  _145
REMARK   59  A    between atoms: _145  and  _146
REMARK   60  A    between atoms: _148  and  _150
REMARK   61  A    between atoms: _150  and  _151
REMARK   62  A    between atoms: _150  and  _153
REMARK   63  A    between atoms: _153  and  _154
REMARK   64  A    between atoms: _154  and  _155
REMARK   65  A    between atoms: _157  and  _159
REMARK   66  A    between atoms: _159  and  _160
REMARK   67  A    between atoms: _159  and  _162
REMARK   68  A    between atoms: _162  and  _163
REMARK   69  A    between atoms: _166  and  _168
REMARK   70  A    between atoms: _168  and  _169
REMARK   71  A    between atoms: _168  and  _171
REMARK   72  A    between atoms: _171  and  _172
REMARK   73  A    between atoms: _174  and  _176
REMARK   74  A    between atoms: _176  and  _177
REMARK   75  A    between atoms: _176  and  _179
REMARK   76  A    between atoms: _182  and  _184
REMARK   77  A    between atoms: _184  and  _185
REMARK   78  A    between atoms: _184  and  _187
REMARK   79  A    between atoms: _190  and  _192
REMARK   80  A    between atoms: _192  and  _193
REMARK   81  A    between atoms: _192  and  _195
REMARK   82  A    between atoms: _195  and  _196
REMARK   83  A    between atoms: _200  and  _201
REMARK   84  A    between atoms: _206  and  _208
REMARK   85  A    between atoms: _208  and  _209
REMARK   86  A    between atoms: _208  and  _211
REMARK   87  A    between atoms: _211  and  _212
REMARK   88  A    between atoms: _217  and  _218
REMARK   89  A    between atoms: _220  and  _222
REMARK   90  A    between atoms: _222  and  _223
REMARK   91  A    between atoms: _222  and  _225
REMARK   92  A    between atoms: _225  and  _226
REMARK   93  A    between atoms: _226  and  _227
REMARK   94  A    between atoms: _229  and  _231
REMARK   95  A    between atoms: _231  and  _232
REMARK   96  A    between atoms: _231  and  _234
REMARK   97  A    between atoms: _234  and  _235
REMARK   98  A    between atoms: _235  and  _236
REMARK   99  A    between atoms: _236  and  _237
REMARK  100  A    between atoms: _237  and  _238
REMARK  101  A    between atoms: _242  and  _244
REMARK  102  A    between atoms: _244  and  _245
REMARK  103  A    between atoms: _244  and  _247
REMARK  104  A    between atoms: _247  and  _248
REMARK  105  A    between atoms: _253  and  _255
REMARK  106  A    between atoms: _255  and  _256
REMARK  107  A    between atoms: _258  and  _260
REMARK  108  A    between atoms: _260  and  _261
REMARK  109  A    between atoms: _260  and  _263
REMARK  110  A    between atoms: _263  and  _264
REMARK  111  A    between atoms: _267  and  _269
REMARK  112  A    between atoms: _269  and  _270
REMARK  113  A    between atoms: _269  and  _272
REMARK  114  A    between atoms: _272  and  _273
REMARK  115  A    between atoms: _276  and  _278
REMARK  116  A    between atoms: _278  and  _279
REMARK  117  A    between atoms: _278  and  _281
REMARK  118  A    between atoms: _281  and  _282
REMARK  119  A    between atoms: _282  and  _283
REMARK  120  A    between atoms: _283  and  _284
REMARK  121  A    between atoms: _293  and  _295
REMARK  122  A    between atoms: _295  and  _296
REMARK  123  A    between atoms: _295  and  _298
REMARK  124  A    between atoms: _298  and  _299
REMARK  125  A    between atoms: _304  and  _306
REMARK  126  A    between atoms: _306  and  _307
REMARK  127  A    between atoms: _306  and  _309
REMARK  128  A    between atoms: _309  and  _310
REMARK  129  A    between atoms: _310  and  _311
REMARK  130  A    between atoms: _311  and  _312
REMARK  131  A    between atoms: _321  and  _323
REMARK  132  A    between atoms: _323  and  _324
REMARK  133  A    between atoms: _323  and  _326
REMARK  134  A    between atoms: _326  and  _327
REMARK  135  A    between atoms: _332  and  _334
REMARK  136  A    between atoms: _334  and  _335
REMARK  137  A    between atoms: _334  and  _337
REMARK  138  A    between atoms: _337  and  _338
REMARK  139  A    between atoms: _341  and  _343
REMARK  140  A    between atoms: _343  and  _344
REMARK  141  A    between atoms: _347  and  _349
REMARK  142  A    between atoms: _349  and  _350
REMARK  143  A    between atoms: _353  and  _355
REMARK  144  A    between atoms: _355  and  _356
REMARK  145  A    between atoms: _355  and  _358
REMARK  146  A    between atoms: _358  and  _359
REMARK  147  A    between atoms: _359  and  _360
REMARK  148  A    between atoms: _360  and  _361
REMARK  149  A    between atoms: _370  and  _372
REMARK  150  A    between atoms: _372  and  _373
REMARK  151  A    between atoms: _372  and  _375
REMARK  152  A    between atoms: _375  and  _376
REMARK  153  A    between atoms: _381  and  _383
REMARK  154  A    between atoms: _383  and  _384
REMARK  155  A    between atoms: _383  and  _386
REMARK  156  A    between atoms: _388  and  _390
REMARK  157  A    between atoms: _390  and  _391
REMARK  158  A    between atoms: _390  and  _393
REMARK  159  A    between atoms: _393  and  _394
REMARK  160  A    between atoms: _394  and  _395
REMARK  161  A    between atoms: _397  and  _399
REMARK  162  A    between atoms: _399  and  _400
REMARK  163  A    between atoms: _399  and  _402
REMARK  164  A    between atoms: _402  and  _403
REMARK  165  A    between atoms: _406  and  _408
REMARK  166  A    between atoms: _408  and  _409
REMARK  167  A    between atoms: _408  and  _411
REMARK  168  A    between atoms: _411  and  _412
REMARK  169  A    between atoms: _415  and  _417
REMARK  170  A    between atoms: _417  and  _418
REMARK  171  A    between atoms: _417  and  _420
REMARK  172  A    between atoms: _420  and  _421
REMARK  173  A    between atoms: _421  and  _422
REMARK  174  A    between atoms: _422  and  _423
REMARK  175  A    between atoms: _423  and  _424
REMARK  176  A    between atoms: _428  and  _430
REMARK  177  A    between atoms: _430  and  _431
REMARK  178  A    between atoms: _430  and  _433
REMARK  179  A    between atoms: _436  and  _438
REMARK  180  A    between atoms: _438  and  _439
REMARK  181  A    between atoms: _442  and  _444
REMARK  182  A    between atoms: _444  and  _445
REMARK  183  A    between atoms: _444  and  _447
REMARK  184  A    between atoms: _447  and  _448
REMARK  185  A    between atoms: _451  and  _453
REMARK  186  A    between atoms: _453  and  _454
REMARK  187  A    between atoms: _453  and  _456
REMARK  188  A    between atoms: _456  and  _457
REMARK  189  A    between atoms: _463  and  _465
REMARK  190  A    between atoms: _465  and  _466
REMARK  191  A    between atoms: _465  and  _468
REMARK  192  A    between atoms: _468  and  _469
REMARK  193  A    between atoms: _472  and  _474
REMARK  194  A    between atoms: _474  and  _475
REMARK  195  A    between atoms: _478  and  _480
REMARK  196  A    between atoms: _480  and  _481
REMARK  197  A    between atoms: _480  and  _483
REMARK  198  A    between atoms: _483  and  _484
REMARK  199  A    between atoms: _484  and  _485
REMARK  200  A    between atoms: _485  and  _486
REMARK  201  A    between atoms: _495  and  _497
REMARK  202  A    between atoms: _497  and  _498
REMARK  203  A    between atoms: _497  and  _500
REMARK  204  A    between atoms: _500  and  _501
REMARK  205  A    between atoms: _504  and  _506
REMARK  206  A    between atoms: _506  and  _507
REMARK  207  A    between atoms: _506  and  _509
REMARK  208  A    between atoms: _509  and  _510
REMARK  209  A    between atoms: _510  and  _511
REMARK  210  A    between atoms: _513  and  _515
REMARK  211  A    between atoms: _515  and  _516
REMARK  212  A    between atoms: _515  and  _518
REMARK  213  A    between atoms: _518  and  _519
REMARK  214  A    between atoms: _524  and  _525
REMARK  215  A    between atoms: _527  and  _529
REMARK  216  A    between atoms: _529  and  _530
REMARK  217  A    between atoms: _529  and  _532
REMARK  218  A    between atoms: _532  and  _533
REMARK  219  A    between atoms: _536  and  _538
REMARK  220  A    between atoms: _538  and  _539
REMARK  221  A    between atoms: _538  and  _541
REMARK  222  A    between atoms: _541  and  _542
REMARK  223  A    between atoms: _542  and  _543
REMARK  224  A    between atoms: _543  and  _544
REMARK  225  A    between atoms: _544  and  _545
REMARK  226  A    between atoms: _549  and  _551
REMARK  227  A    between atoms: _551  and  _552
REMARK  228  A    between atoms: _551  and  _554
REMARK  229  A    between atoms: _554  and  _555
REMARK  230  A    between atoms: _560  and  _561
REMARK  231  A    between atoms: _563  and  _565
REMARK  232  A    between atoms: _565  and  _566
REMARK  233  A    between atoms: _565  and  _568
REMARK  234  A    between atoms: _568  and  _569
REMARK  235  A    between atoms: _574  and  _575
REMARK                            x       y       z     vdW  Elec       q    Type
REMARK                         _______ _______ _______ _____ _____    ______ ____
ROOT
ATOM      1  O   HOH     1      16.458  12.975   0.839  0.00  0.00    +0.000 OA
ENDROOT
TORSDOF 0
REMARK  Name = ../refined-set-2016/3zze/3zze_pocket.pdb
REMARK  235 active torsions:
REMARK  status: ('A' for Active; 'I' for Inactive)
REMARK    1  A    between atoms: _1  and  _3
REMARK    2  A    between atoms: _3  and  _4
REMARK    3  A    between atoms: _3  and  _6
REMARK    4  A    between atoms: _9  and  _11
REMARK    5  A    between atoms: _11  and  _12
REMARK    6  A    between atoms: _11  and  _14
REMARK    7  A    between atoms: _14  and  _15
REMARK    8  A    between atoms: _18  and  _20
REMARK    9  A    between atoms: _20  and  _21
REMARK   10  A    between atoms: _23  and  _25
REMARK   11  A    between atoms: _25  and  _26
REMARK   12  A    between atoms: _25  and  _28
REMARK   13  A    between atoms: _28  and  _29
REMARK   14  A    between atoms: _29  and  _30
REMARK   15  A    between atoms: _30  and  _31
REMARK   16  A    between atoms: _40  and  _42
REMARK   17  A    between atoms: _42  and  _43
REMARK   18  A    between atoms: _45  and  _47
REMARK   19  A    between atoms: _47  and  _48
REMARK   20  A    between atoms: _50  and  _52
REMARK   21  A    between atoms: _52  and  _53
REMARK   22  A    between atoms: _52  and  _55
REMARK   23  A    between atoms: _57  and  _59
REMARK   24  A    between atoms: _59  and  _60
REMARK   25  A    between atoms: _59  and  _62
REMARK   26  A    between atoms: _65  and  _67
REMARK   27  A    between atoms: _67  and  _68
REMARK   28  A    between atoms: _67  and  _70
REMARK   29  A    between atoms: _70  and  _71
REMARK   30  A    between atoms: _76  and  _77
REMARK   31  A    between atoms: _79  and  _81
REMARK   32  A    between atoms: _81  and  _82
REMARK   33  A    between atoms: _81  and  _84
REMARK   34  A    between atoms: _84  and  _85
REMARK   35  A    between atoms: _90  and  _92
REMARK   36  A    between atoms: _92  and  _93
REMARK   37  A    between atoms: _95  and  _97
REMARK   38  A    between atoms: _97  and  _98
REMARK   39  A    between atoms: _97  and  _100
REMARK   40  A    between atoms: _100  and  _101
REMARK   41  A    between atoms: _106  and  _108
REMARK   42  A    between atoms: _108  and  _109
REMARK   43  A    between atoms: _108  and  _111
REMARK   44  A    between atoms: _113  and  _115
REMARK   45  A    between atoms: _115  and  _116
REMARK   46  A    between atoms: _119  and  _121
REMARK   47  A    between atoms: _121  and  _122
REMARK   48  A    between atoms: _121  and  _124
REMARK   49  A    between atoms: _127  and  _129
REMARK   50  A    between atoms: _129  and  _130
REMARK   51  A    between atoms: _129  and  _132
REMARK   52  A    between atoms: _132  and  _133
REMARK   53  A    between atoms: _133  and  _134
REMARK   54  A    between atoms: _134  and  _135
REMARK   55  A    between atoms: _135  and  _136
REMARK   56  A    between atoms: _140  and  _142
REMARK   57  A    between atoms: _142  and  _143
REMARK   58  A    between atoms: _142  and  _145
REMARK   59  A    between atoms: _145  and  _146
REMARK   60  A    between atoms: _148  and  _150
REMARK   61  A    between atoms: _150  and  _151
REMARK   62  A    between atoms: _150  and  _153
REMARK   63  A    between atoms: _153  and  _154
REMARK   64  A    between atoms: _154  and  _155
REMARK   65  A    between atoms: _157  and  _159
REMARK   66  A    between atoms: _159  and  _160
REMARK   67  A    between atoms: _159  and  _162
REMARK   68  A    between atoms: _162  and  _163
REMARK   69  A    between atoms: _166  and  _168
REMARK   70  A    between atoms: _168  and  _169
REMARK   71  A    between atoms: _168  and  _171
REMARK   72  A    between atoms: _171  and  _172
REMARK   73  A    between atoms: _174  and  _176
REMARK   74  A    between atoms: _176  and  _177
REMARK   75  A    between atoms: _176  and  _179
REMARK   76  A    between atoms: _182  and  _184
REMARK   77  A    between atoms: _184  and  _185
REMARK   78  A    between atoms: _184  and  _187
REMARK   79  A    between atoms: _190  and  _192
REMARK   80  A    between atoms: _192  and  _193
REMARK   81  A    between atoms: _192  and  _195
REMARK   82  A    between atoms: _195  and  _196
REMARK   83  A    between atoms: _200  and  _201
REMARK   84  A    between atoms: _206  and  _208
REMARK   85  A    between atoms: _208  and  _209
REMARK   86  A    between atoms: _208  and  _211
REMARK   87  A    between atoms: _211  and  _212
REMARK   88  A    between atoms: _217  and  _218
REMARK   89  A    between atoms: _220  and  _222
REMARK   90  A    between atoms: _222  and  _223
REMARK   91  A    between atoms: _222  and  _225
REMARK   92  A    between atoms: _225  and  _226
REMARK   93  A    between atoms: _226  and  _227
REMARK   94  A    between atoms: _229  and  _231
REMARK   95  A    between atoms: _231  and  _232
REMARK   96  A    between atoms: _231  and  _234
REMARK   97  A    between atoms: _234  and  _235
REMARK   98  A    between atoms: _235  and  _236
REMARK   99  A    between atoms: _236  and  _237
REMARK  100  A    between atoms: _237  and  _238
REMARK  101  A    between atoms: _242  and  _244
REMARK  102  A    between atoms: _244  and  _245
REMARK  103  A    between atoms: _244  and  _247
REMARK  104  A    between atoms: _247  and  _248
REMARK  105  A    between atoms: _253  and  _255
REMARK  106  A    between atoms: _255  and  _256
REMARK  107  A    between atoms: _258  and  _260
REMARK  108  A    between atoms: _260  and  _261
REMARK  109  A    between atoms: _260  and  _263
REMARK  110  A    between atoms: _263  and  _264
REMARK  111  A    between atoms: _267  and  _269
REMARK  112  A    between atoms: _269  and  _270
REMARK  113  A    between atoms: _269  and  _272
REMARK  114  A    between atoms: _272  and  _273
REMARK  115  A    between atoms: _276  and  _278
REMARK  116  A    between atoms: _278  and  _279
REMARK  117  A    between atoms: _278  and  _281
REMARK  118  A    between atoms: _281  and  _282
REMARK  119  A    between atoms: _282  and  _283
REMARK  120  A    between atoms: _283  and  _284
REMARK  121  A    between atoms: _293  and  _295
REMARK  122  A    between atoms: _295  and  _296
REMARK  123  A    between atoms: _295  and  _298
REMARK  124  A    between atoms: _298  and  _299
REMARK  125  A    between atoms: _304  and  _306
REMARK  126  A    between atoms: _306  and  _307
REMARK  127  A    between atoms: _306  and  _309
REMARK  128  A    between atoms: _309  and  _310
REMARK  129  A    between atoms: _310  and  _311
REMARK  130  A    between atoms: _311  and  _312
REMARK  131  A    between atoms: _321  and  _323
REMARK  132  A    between atoms: _323  and  _324
REMARK  133  A    between atoms: _323  and  _326
REMARK  134  A    between atoms: _326  and  _327
REMARK  135  A    between atoms: _332  and  _334
REMARK  136  A    between atoms: _334  and  _335
REMARK  137  A    between atoms: _334  and  _337
REMARK  138  A    between atoms: _337  and  _338
REMARK  139  A    between atoms: _341  and  _343
REMARK  140  A    between atoms: _343  and  _344
REMARK  141  A    between atoms: _347  and  _349
REMARK  142  A    between atoms: _349  and  _350
REMARK  143  A    between atoms: _353  and  _355
REMARK  144  A    between atoms: _355  and  _356
REMARK  145  A    between atoms: _355  and  _358
REMARK  146  A    between atoms: _358  and  _359
REMARK  147  A    between atoms: _359  and  _360
REMARK  148  A    between atoms: _360  and  _361
REMARK  149  A    between atoms: _370  and  _372
REMARK  150  A    between atoms: _372  and  _373
REMARK  151  A    between atoms: _372  and  _375
REMARK  152  A    between atoms: _375  and  _376
REMARK  153  A    between atoms: _381  and  _383
REMARK  154  A    between atoms: _383  and  _384
REMARK  155  A    between atoms: _383  and  _386
REMARK  156  A    between atoms: _388  and  _390
REMARK  157  A    between atoms: _390  and  _391
REMARK  158  A    between atoms: _390  and  _393
REMARK  159  A    between atoms: _393  and  _394
REMARK  160  A    between atoms: _394  and  _395
REMARK  161  A    between atoms: _397  and  _399
REMARK  162  A    between atoms: _399  and  _400
REMARK  163  A    between atoms: _399  and  _402
REMARK  164  A    between atoms: _402  and  _403
REMARK  165  A    between atoms: _406  and  _408
REMARK  166  A    between atoms: _408  and  _409
REMARK  167  A    between atoms: _408  and  _411
REMARK  168  A    between atoms: _411  and  _412
REMARK  169  A    between atoms: _415  and  _417
REMARK  170  A    between atoms: _417  and  _418
REMARK  171  A    between atoms: _417  and  _420
REMARK  172  A    between atoms: _420  and  _421
REMARK  173  A    between atoms: _421  and  _422
REMARK  174  A    between atoms: _422  and  _423
REMARK  175  A    between atoms: _423  and  _424
REMARK  176  A    between atoms: _428  and  _430
REMARK  177  A    between atoms: _430  and  _431
REMARK  178  A    between atoms: _430  and  _433
REMARK  179  A    between atoms: _436  and  _438
REMARK  180  A    between atoms: _438  and  _439
REMARK  181  A    between atoms: _442  and  _444
REMARK  182  A    between atoms: _444  and  _445
REMARK  183  A    between atoms: _444  and  _447
REMARK  184  A    between atoms: _447  and  _448
REMARK  185  A    between atoms: _451  and  _453
REMARK  186  A    between atoms: _453  and  _454
REMARK  187  A    between atoms: _453  and  _456
REMARK  188  A    between atoms: _456  and  _457
REMARK  189  A    between atoms: _463  and  _465
REMARK  190  A    between atoms: _465  and  _466
REMARK  191  A    between atoms: _465  and  _468
REMARK  192  A    between atoms: _468  and  _469
REMARK  193  A    between atoms: _472  and  _474
REMARK  194  A    between atoms: _474  and  _475
REMARK  195  A    between atoms: _478  and  _480
REMARK  196  A    between atoms: _480  and  _481
REMARK  197  A    between atoms: _480  and  _483
REMARK  198  A    between atoms: _483  and  _484
REMARK  199  A    between atoms: _484  and  _485
REMARK  200  A    between atoms: _485  and  _486
REMARK  201  A    between atoms: _495  and  _497
REMARK  202  A    between atoms: _497  and  _498
REMARK  203  A    between atoms: _497  and  _500
REMARK  204  A    between atoms: _500  and  _501
REMARK  205  A    between atoms: _504  and  _506
REMARK  206  A    between atoms: _506  and  _507
REMARK  207  A    between atoms: _506  and  _509
REMARK  208  A    between atoms: _509  and  _510
REMARK  209  A    between atoms: _510  and  _511
REMARK  210  A    between atoms: _513  and  _515
REMARK  211  A    between atoms: _515  and  _516
REMARK  212  A    between atoms: _515  and  _518
REMARK  213  A    between atoms: _518  and  _519
REMARK  214  A    between atoms: _524  and  _525
REMARK  215  A    between atoms: _527  and  _529
REMARK  216  A    between atoms: _529  and  _530
REMARK  217  A    between atoms: _529  and  _532
REMARK  218  A    between atoms: _532  and  _533
REMARK  219  A    between atoms: _536  and  _538
REMARK  220  A    between atoms: _538  and  _539
REMARK  221  A    between atoms: _538  and  _541
REMARK  222  A    between atoms: _541  and  _542
REMARK  223  A    between atoms: _542  and  _543
REMARK  224  A    between atoms: _543  and  _544
REMARK  225  A    between atoms: _544  and  _545
REMARK  226  A    between atoms: _549  and  _551
REMARK  227  A    between atoms: _551  and  _552
REMARK  228  A    between atoms: _551  and  _554
REMARK  229  A    between atoms: _554  and  _555
REMARK  230  A    between atoms: _560  and  _561
REMARK  231  A    between atoms: _563  and  _565
REMARK  232  A    between atoms: _565  and  _566
REMARK  233  A    between atoms: _565  and  _568
REMARK  234  A    between atoms: _568  and  _569
REMARK  235  A    between atoms: _574  and  _575
REMARK                            x       y       z     vdW  Elec       q    Type
REMARK                         _______ _______ _______ _____ _____    ______ ____
ROOT
ATOM      1  O   HOH     1      20.539  17.902  -0.190  0.00  0.00    +0.000 OA
ENDROOT
TORSDOF 0
REMARK  Name = ../refined-set-2016/3zze/3zze_pocket.pdb
REMARK  235 active torsions:
REMARK  status: ('A' for Active; 'I' for Inactive)
REMARK    1  A    between atoms: _1  and  _3
REMARK    2  A    between atoms: _3  and  _4
REMARK    3  A    between atoms: _3  and  _6
REMARK    4  A    between atoms: _9  and  _11
REMARK    5  A    between atoms: _11  and  _12
REMARK    6  A    between atoms: _11  and  _14
REMARK    7  A    between atoms: _14  and  _15
REMARK    8  A    between atoms: _18  and  _20
REMARK    9  A    between atoms: _20  and  _21
REMARK   10  A    between atoms: _23  and  _25
REMARK   11  A    between atoms: _25  and  _26
REMARK   12  A    between atoms: _25  and  _28
REMARK   13  A    between atoms: _28  and  _29
REMARK   14  A    between atoms: _29  and  _30
REMARK   15  A    between atoms: _30  and  _31
REMARK   16  A    between atoms: _40  and  _42
REMARK   17  A    between atoms: _42  and  _43
REMARK   18  A    between atoms: _45  and  _47
REMARK   19  A    between atoms: _47  and  _48
REMARK   20  A    between atoms: _50  and  _52
REMARK   21  A    between atoms: _52  and  _53
REMARK   22  A    between atoms: _52  and  _55
REMARK   23  A    between atoms: _57  and  _59
REMARK   24  A    between atoms: _59  and  _60
REMARK   25  A    between atoms: _59  and  _62
REMARK   26  A    between atoms: _65  and  _67
REMARK   27  A    between atoms: _67  and  _68
REMARK   28  A    between atoms: _67  and  _70
REMARK   29  A    between atoms: _70  and  _71
REMARK   30  A    between atoms: _76  and  _77
REMARK   31  A    between atoms: _79  and  _81
REMARK   32  A    between atoms: _81  and  _82
REMARK   33  A    between atoms: _81  and  _84
REMARK   34  A    between atoms: _84  and  _85
REMARK   35  A    between atoms: _90  and  _92
REMARK   36  A    between atoms: _92  and  _93
REMARK   37  A    between atoms: _95  and  _97
REMARK   38  A    between atoms: _97  and  _98
REMARK   39  A    between atoms: _97  and  _100
REMARK   40  A    between atoms: _100  and  _101
REMARK   41  A    between atoms: _106  and  _108
REMARK   42  A    between atoms: _108  and  _109
REMARK   43  A    between atoms: _108  and  _111
REMARK   44  A    between atoms: _113  and  _115
REMARK   45  A    between atoms: _115  and  _116
REMARK   46  A    between atoms: _119  and  _121
REMARK   47  A    between atoms: _121  and  _122
REMARK   48  A    between atoms: _121  and  _124
REMARK   49  A    between atoms: _127  and  _129
REMARK   50  A    between atoms: _129  and  _130
REMARK   51  A    between atoms: _129  and  _132
REMARK   52  A    between atoms: _132  and  _133
REMARK   53  A    between atoms: _133  and  _134
REMARK   54  A    between atoms: _134  and  _135
REMARK   55  A    between atoms: _135  and  _136
REMARK   56  A    between atoms: _140  and  _142
REMARK   57  A    between atoms: _142  and  _143
REMARK   58  A    between atoms: _142  and  _145
REMARK   59  A    between atoms: _145  and  _146
REMARK   60  A    between atoms: _148  and  _150
REMARK   61  A    between atoms: _150  and  _151
REMARK   62  A    between atoms: _150  and  _153
REMARK   63  A    between atoms: _153  and  _154
REMARK   64  A    between atoms: _154  and  _155
REMARK   65  A    between atoms: _157  and  _159
REMARK   66  A    between atoms: _159  and  _160
REMARK   67  A    between atoms: _159  and  _162
REMARK   68  A    between atoms: _162  and  _163
REMARK   69  A    between atoms: _166  and  _168
REMARK   70  A    between atoms: _168  and  _169
REMARK   71  A    between atoms: _168  and  _171
REMARK   72  A    between atoms: _171  and  _172
REMARK   73  A    between atoms: _174  and  _176
REMARK   74  A    between atoms: _176  and  _177
REMARK   75  A    between atoms: _176  and  _179
REMARK   76  A    between atoms: _182  and  _184
REMARK   77  A    between atoms: _184  and  _185
REMARK   78  A    between atoms: _184  and  _187
REMARK   79  A    between atoms: _190  and  _192
REMARK   80  A    between atoms: _192  and  _193
REMARK   81  A    between atoms: _192  and  _195
REMARK   82  A    between atoms: _195  and  _196
REMARK   83  A    between atoms: _200  and  _201
REMARK   84  A    between atoms: _206  and  _208
REMARK   85  A    between atoms: _208  and  _209
REMARK   86  A    between atoms: _208  and  _211
REMARK   87  A    between atoms: _211  and  _212
REMARK   88  A    between atoms: _217  and  _218
REMARK   89  A    between atoms: _220  and  _222
REMARK   90  A    between atoms: _222  and  _223
REMARK   91  A    between atoms: _222  and  _225
REMARK   92  A    between atoms: _225  and  _226
REMARK   93  A    between atoms: _226  and  _227
REMARK   94  A    between atoms: _229  and  _231
REMARK   95  A    between atoms: _231  and  _232
REMARK   96  A    between atoms: _231  and  _234
REMARK   97  A    between atoms: _234  and  _235
REMARK   98  A    between atoms: _235  and  _236
REMARK   99  A    between atoms: _236  and  _237
REMARK  100  A    between atoms: _237  and  _238
REMARK  101  A    between atoms: _242  and  _244
REMARK  102  A    between atoms: _244  and  _245
REMARK  103  A    between atoms: _244  and  _247
REMARK  104  A    between atoms: _247  and  _248
REMARK  105  A    between atoms: _253  and  _255
REMARK  106  A    between atoms: _255  and  _256
REMARK  107  A    between atoms: _258  and  _260
REMARK  108  A    between atoms: _260  and  _261
REMARK  109  A    between atoms: _260  and  _263
REMARK  110  A    between atoms: _263  and  _264
REMARK  111  A    between atoms: _267  and  _269
REMARK  112  A    between atoms: _269  and  _270
REMARK  113  A    between atoms: _269  and  _272
REMARK  114  A    between atoms: _272  and  _273
REMARK  115  A    between atoms: _276  and  _278
REMARK  116  A    between atoms: _278  and  _279
REMARK  117  A    between atoms: _278  and  _281
REMARK  118  A    between atoms: _281  and  _282
REMARK  119  A    between atoms: _282  and  _283
REMARK  120  A    between atoms: _283  and  _284
REMARK  121  A    between atoms: _293  and  _295
REMARK  122  A    between atoms: _295  and  _296
REMARK  123  A    between atoms: _295  and  _298
REMARK  124  A    between atoms: _298  and  _299
REMARK  125  A    between atoms: _304  and  _306
REMARK  126  A    between atoms: _306  and  _307
REMARK  127  A    between atoms: _306  and  _309
REMARK  128  A    between atoms: _309  and  _310
REMARK  129  A    between atoms: _310  and  _311
REMARK  130  A    between atoms: _311  and  _312
REMARK  131  A    between atoms: _321  and  _323
REMARK  132  A    between atoms: _323  and  _324
REMARK  133  A    between atoms: _323  and  _326
REMARK  134  A    between atoms: _326  and  _327
REMARK  135  A    between atoms: _332  and  _334
REMARK  136  A    between atoms: _334  and  _335
REMARK  137  A    between atoms: _334  and  _337
REMARK  138  A    between atoms: _337  and  _338
REMARK  139  A    between atoms: _341  and  _343
REMARK  140  A    between atoms: _343  and  _344
REMARK  141  A    between atoms: _347  and  _349
REMARK  142  A    between atoms: _349  and  _350
REMARK  143  A    between atoms: _353  and  _355
REMARK  144  A    between atoms: _355  and  _356
REMARK  145  A    between atoms: _355  and  _358
REMARK  146  A    between atoms: _358  and  _359
REMARK  147  A    between atoms: _359  and  _360
REMARK  148  A    between atoms: _360  and  _361
REMARK  149  A    between atoms: _370  and  _372
REMARK  150  A    between atoms: _372  and  _373
REMARK  151  A    between atoms: _372  and  _375
REMARK  152  A    between atoms: _375  and  _376
REMARK  153  A    between atoms: _381  and  _383
REMARK  154  A    between atoms: _383  and  _384
REMARK  155  A    between atoms: _383  and  _386
REMARK  156  A    between atoms: _388  and  _390
REMARK  157  A    between atoms: _390  and  _391
REMARK  158  A    between atoms: _390  and  _393
REMARK  159  A    between atoms: _393  and  _394
REMARK  160  A    between atoms: _394  and  _395
REMARK  161  A    between atoms: _397  and  _399
REMARK  162  A    between atoms: _399  and  _400
REMARK  163  A    between atoms: _399  and  _402
REMARK  164  A    between atoms: _402  and  _403
REMARK  165  A    between atoms: _406  and  _408
REMARK  166  A    between atoms: _408  and  _409
REMARK  167  A    between atoms: _408  and  _411
REMARK  168  A    between atoms: _411  and  _412
REMARK  169  A    between atoms: _415  and  _417
REMARK  170  A    between atoms: _417  and  _418
REMARK  171  A    between atoms: _417  and  _420
REMARK  172  A    between atoms: _420  and  _421
REMARK  173  A    between atoms: _421  and  _422
REMARK  174  A    between atoms: _422  and  _423
REMARK  175  A    between atoms: _423  and  _424
REMARK  176  A    between atoms: _428  and  _430
REMARK  177  A    between atoms: _430  and  _431
REMARK  178  A    between atoms: _430  and  _433
REMARK  179  A    between atoms: _436  and  _438
REMARK  180  A    between atoms: _438  and  _439
REMARK  181  A    between atoms: _442  and  _444
REMARK  182  A    between atoms: _444  and  _445
REMARK  183  A    between atoms: _444  and  _447
REMARK  184  A    between atoms: _447  and  _448
REMARK  185  A    between atoms: _451  and  _453
REMARK  186  A    between atoms: _453  and  _454
REMARK  187  A    between atoms: _453  and  _456
REMARK  188  A    between atoms: _456  and  _457
REMARK  189  A    between atoms: _463  and  _465
REMARK  190  A    between atoms: _465  and  _466
REMARK  191  A    between atoms: _465  and  _468
REMARK  192  A    between atoms: _468  and  _469
REMARK  193  A    between atoms: _472  and  _474
REMARK  194  A    between atoms: _474  and  _475
REMARK  195  A    between atoms: _478  and  _480
REMARK  196  A    between atoms: _480  and  _481
REMARK  197  A    between atoms: _480  and  _483
REMARK  198  A    between atoms: _483  and  _484
REMARK  199  A    between atoms: _484  and  _485
REMARK  200  A    between atoms: _485  and  _486
REMARK  201  A    between atoms: _495  and  _497
REMARK  202  A    between atoms: _497  and  _498
REMARK  203  A    between atoms: _497  and  _500
REMARK  204  A    between atoms: _500  and  _501
REMARK  205  A    between atoms: _504  and  _506
REMARK  206  A    between atoms: _506  and  _507
REMARK  207  A    between atoms: _506  and  _509
REMARK  208  A    between atoms: _509  and  _510
REMARK  209  A    between atoms: _510  and  _511
REMARK  210  A    between atoms: _513  and  _515
REMARK  211  A    between atoms: _515  and  _516
REMARK  212  A    between atoms: _515  and  _518
REMARK  213  A    between atoms: _518  and  _519
REMARK  214  A    between atoms: _524  and  _525
REMARK  215  A    between atoms: _527  and  _529
REMARK  216  A    between atoms: _529  and  _530
REMARK  217  A    between atoms: _529  and  _532
REMARK  218  A    between atoms: _532  and  _533
REMARK  219  A    between atoms: _536  and  _538
REMARK  220  A    between atoms: _538  and  _539
REMARK  221  A    between atoms: _538  and  _541
REMARK  222  A    between atoms: _541  and  _542
REMARK  223  A    between atoms: _542  and  _543
REMARK  224  A    between atoms: _543  and  _544
REMARK  225  A    between atoms: _544  and  _545
REMARK  226  A    between atoms: _549  and  _551
REMARK  227  A    between atoms: _551  and  _552
REMARK  228  A    between atoms: _551  and  _554
REMARK  229  A    between atoms: _554  and  _555
REMARK  230  A    between atoms: _560  and  _561
REMARK  231  A    between atoms: _563  and  _565
REMARK  232  A    between atoms: _565  and  _566
REMARK  233  A    between atoms: _565  and  _568
REMARK  234  A    between atoms: _568  and  _569
REMARK  235  A    between atoms: _574  and  _575
REMARK                            x       y       z     vdW  Elec       q    Type
REMARK                         _______ _______ _______ _____ _____    ______ ____
ROOT
ATOM      1  O   HOH     1      23.108  18.732  -0.356  0.00  0.00    +0.000 OA
ENDROOT
TORSDOF 0
REMARK  Name = ../refined-set-2016/3zze/3zze_pocket.pdb
REMARK  235 active torsions:
REMARK  status: ('A' for Active; 'I' for Inactive)
REMARK    1  A    between atoms: _1  and  _3
REMARK    2  A    between atoms: _3  and  _4
REMARK    3  A    between atoms: _3  and  _6
REMARK    4  A    between atoms: _9  and  _11
REMARK    5  A    between atoms: _11  and  _12
REMARK    6  A    between atoms: _11  and  _14
REMARK    7  A    between atoms: _14  and  _15
REMARK    8  A    between atoms: _18  and  _20
REMARK    9  A    between atoms: _20  and  _21
REMARK   10  A    between atoms: _23  and  _25
REMARK   11  A    between atoms: _25  and  _26
REMARK   12  A    between atoms: _25  and  _28
REMARK   13  A    between atoms: _28  and  _29
REMARK   14  A    between atoms: _29  and  _30
REMARK   15  A    between atoms: _30  and  _31
REMARK   16  A    between atoms: _40  and  _42
REMARK   17  A    between atoms: _42  and  _43
REMARK   18  A    between atoms: _45  and  _47
REMARK   19  A    between atoms: _47  and  _48
REMARK   20  A    between atoms: _50  and  _52
REMARK   21  A    between atoms: _52  and  _53
REMARK   22  A    between atoms: _52  and  _55
REMARK   23  A    between atoms: _57  and  _59
REMARK   24  A    between atoms: _59  and  _60
REMARK   25  A    between atoms: _59  and  _62
REMARK   26  A    between atoms: _65  and  _67
REMARK   27  A    between atoms: _67  and  _68
REMARK   28  A    between atoms: _67  and  _70
REMARK   29  A    between atoms: _70  and  _71
REMARK   30  A    between atoms: _76  and  _77
REMARK   31  A    between atoms: _79  and  _81
REMARK   32  A    between atoms: _81  and  _82
REMARK   33  A    between atoms: _81  and  _84
REMARK   34  A    between atoms: _84  and  _85
REMARK   35  A    between atoms: _90  and  _92
REMARK   36  A    between atoms: _92  and  _93
REMARK   37  A    between atoms: _95  and  _97
REMARK   38  A    between atoms: _97  and  _98
REMARK   39  A    between atoms: _97  and  _100
REMARK   40  A    between atoms: _100  and  _101
REMARK   41  A    between atoms: _106  and  _108
REMARK   42  A    between atoms: _108  and  _109
REMARK   43  A    between atoms: _108  and  _111
REMARK   44  A    between atoms: _113  and  _115
REMARK   45  A    between atoms: _115  and  _116
REMARK   46  A    between atoms: _119  and  _121
REMARK   47  A    between atoms: _121  and  _122
REMARK   48  A    between atoms: _121  and  _124
REMARK   49  A    between atoms: _127  and  _129
REMARK   50  A    between atoms: _129  and  _130
REMARK   51  A    between atoms: _129  and  _132
REMARK   52  A    between atoms: _132  and  _133
REMARK   53  A    between atoms: _133  and  _134
REMARK   54  A    between atoms: _134  and  _135
REMARK   55  A    between atoms: _135  and  _136
REMARK   56  A    between atoms: _140  and  _142
REMARK   57  A    between atoms: _142  and  _143
REMARK   58  A    between atoms: _142  and  _145
REMARK   59  A    between atoms: _145  and  _146
REMARK   60  A    between atoms: _148  and  _150
REMARK   61  A    between atoms: _150  and  _151
REMARK   62  A    between atoms: _150  and  _153
REMARK   63  A    between atoms: _153  and  _154
REMARK   64  A    between atoms: _154  and  _155
REMARK   65  A    between atoms: _157  and  _159
REMARK   66  A    between atoms: _159  and  _160
REMARK   67  A    between atoms: _159  and  _162
REMARK   68  A    between atoms: _162  and  _163
REMARK   69  A    between atoms: _166  and  _168
REMARK   70  A    between atoms: _168  and  _169
REMARK   71  A    between atoms: _168  and  _171
REMARK   72  A    between atoms: _171  and  _172
REMARK   73  A    between atoms: _174  and  _176
REMARK   74  A    between atoms: _176  and  _177
REMARK   75  A    between atoms: _176  and  _179
REMARK   76  A    between atoms: _182  and  _184
REMARK   77  A    between atoms: _184  and  _185
REMARK   78  A    between atoms: _184  and  _187
REMARK   79  A    between atoms: _190  and  _192
REMARK   80  A    between atoms: _192  and  _193
REMARK   81  A    between atoms: _192  and  _195
REMARK   82  A    between atoms: _195  and  _196
REMARK   83  A    between atoms: _200  and  _201
REMARK   84  A    between atoms: _206  and  _208
REMARK   85  A    between atoms: _208  and  _209
REMARK   86  A    between atoms: _208  and  _211
REMARK   87  A    between atoms: _211  and  _212
REMARK   88  A    between atoms: _217  and  _218
REMARK   89  A    between atoms: _220  and  _222
REMARK   90  A    between atoms: _222  and  _223
REMARK   91  A    between atoms: _222  and  _225
REMARK   92  A    between atoms: _225  and  _226
REMARK   93  A    between atoms: _226  and  _227
REMARK   94  A    between atoms: _229  and  _231
REMARK   95  A    between atoms: _231  and  _232
REMARK   96  A    between atoms: _231  and  _234
REMARK   97  A    between atoms: _234  and  _235
REMARK   98  A    between atoms: _235  and  _236
REMARK   99  A    between atoms: _236  and  _237
REMARK  100  A    between atoms: _237  and  _238
REMARK  101  A    between atoms: _242  and  _244
REMARK  102  A    between atoms: _244  and  _245
REMARK  103  A    between atoms: _244  and  _247
REMARK  104  A    between atoms: _247  and  _248
REMARK  105  A    between atoms: _253  and  _255
REMARK  106  A    between atoms: _255  and  _256
REMARK  107  A    between atoms: _258  and  _260
REMARK  108  A    between atoms: _260  and  _261
REMARK  109  A    between atoms: _260  and  _263
REMARK  110  A    between atoms: _263  and  _264
REMARK  111  A    between atoms: _267  and  _269
REMARK  112  A    between atoms: _269  and  _270
REMARK  113  A    between atoms: _269  and  _272
REMARK  114  A    between atoms: _272  and  _273
REMARK  115  A    between atoms: _276  and  _278
REMARK  116  A    between atoms: _278  and  _279
REMARK  117  A    between atoms: _278  and  _281
REMARK  118  A    between atoms: _281  and  _282
REMARK  119  A    between atoms: _282  and  _283
REMARK  120  A    between atoms: _283  and  _284
REMARK  121  A    between atoms: _293  and  _295
REMARK  122  A    between atoms: _295  and  _296
REMARK  123  A    between atoms: _295  and  _298
REMARK  124  A    between atoms: _298  and  _299
REMARK  125  A    between atoms: _304  and  _306
REMARK  126  A    between atoms: _306  and  _307
REMARK  127  A    between atoms: _306  and  _309
REMARK  128  A    between atoms: _309  and  _310
REMARK  129  A    between atoms: _310  and  _311
REMARK  130  A    between atoms: _311  and  _312
REMARK  131  A    between atoms: _321  and  _323
REMARK  132  A    between atoms: _323  and  _324
REMARK  133  A    between atoms: _323  and  _326
REMARK  134  A    between atoms: _326  and  _327
REMARK  135  A    between atoms: _332  and  _334
REMARK  136  A    between atoms: _334  and  _335
REMARK  137  A    between atoms: _334  and  _337
REMARK  138  A    between atoms: _337  and  _338
REMARK  139  A    between atoms: _341  and  _343
REMARK  140  A    between atoms: _343  and  _344
REMARK  141  A    between atoms: _347  and  _349
REMARK  142  A    between atoms: _349  and  _350
REMARK  143  A    between atoms: _353  and  _355
REMARK  144  A    between atoms: _355  and  _356
REMARK  145  A    between atoms: _355  and  _358
REMARK  146  A    between atoms: _358  and  _359
REMARK  147  A    between atoms: _359  and  _360
REMARK  148  A    between atoms: _360  and  _361
REMARK  149  A    between atoms: _370  and  _372
REMARK  150  A    between atoms: _372  and  _373
REMARK  151  A    between atoms: _372  and  _375
REMARK  152  A    between atoms: _375  and  _376
REMARK  153  A    between atoms: _381  and  _383
REMARK  154  A    between atoms: _383  and  _384
REMARK  155  A    between atoms: _383  and  _386
REMARK  156  A    between atoms: _388  and  _390
REMARK  157  A    between atoms: _390  and  _391
REMARK  158  A    between atoms: _390  and  _393
REMARK  159  A    between atoms: _393  and  _394
REMARK  160  A    between atoms: _394  and  _395
REMARK  161  A    between atoms: _397  and  _399
REMARK  162  A    between atoms: _399  and  _400
REMARK  163  A    between atoms: _399  and  _402
REMARK  164  A    between atoms: _402  and  _403
REMARK  165  A    between atoms: _406  and  _408
REMARK  166  A    between atoms: _408  and  _409
REMARK  167  A    between atoms: _408  and  _411
REMARK  168  A    between atoms: _411  and  _412
REMARK  169  A    between atoms: _415  and  _417
REMARK  170  A    between atoms: _417  and  _418
REMARK  171  A    between atoms: _417  and  _420
REMARK  172  A    between atoms: _420  and  _421
REMARK  173  A    between atoms: _421  and  _422
REMARK  174  A    between atoms: _422  and  _423
REMARK  175  A    between atoms: _423  and  _424
REMARK  176  A    between atoms: _428  and  _430
REMARK  177  A    between atoms: _430  and  _431
REMARK  178  A    between atoms: _430  and  _433
REMARK  179  A    between atoms: _436  and  _438
REMARK  180  A    between atoms: _438  and  _439
REMARK  181  A    between atoms: _442  and  _444
REMARK  182  A    between atoms: _444  and  _445
REMARK  183  A    between atoms: _444  and  _447
REMARK  184  A    between atoms: _447  and  _448
REMARK  185  A    between atoms: _451  and  _453
REMARK  186  A    between atoms: _453  and  _454
REMARK  187  A    between atoms: _453  and  _456
REMARK  188  A    between atoms: _456  and  _457
REMARK  189  A    between atoms: _463  and  _465
REMARK  190  A    between atoms: _465  and  _466
REMARK  191  A    between atoms: _465  and  _468
REMARK  192  A    between atoms: _468  and  _469
REMARK  193  A    between atoms: _472  and  _474
REMARK  194  A    between atoms: _474  and  _475
REMARK  195  A    between atoms: _478  and  _480
REMARK  196  A    between atoms: _480  and  _481
REMARK  197  A    between atoms: _480  and  _483
REMARK  198  A    between atoms: _483  and  _484
REMARK  199  A    between atoms: _484  and  _485
REMARK  200  A    between atoms: _485  and  _486
REMARK  201  A    between atoms: _495  and  _497
REMARK  202  A    between atoms: _497  and  _498
REMARK  203  A    between atoms: _497  and  _500
REMARK  204  A    between atoms: _500  and  _501
REMARK  205  A    between atoms: _504  and  _506
REMARK  206  A    between atoms: _506  and  _507
REMARK  207  A    between atoms: _506  and  _509
REMARK  208  A    between atoms: _509  and  _510
REMARK  209  A    between atoms: _510  and  _511
REMARK  210  A    between atoms: _513  and  _515
REMARK  211  A    between atoms: _515  and  _516
REMARK  212  A    between atoms: _515  and  _518
REMARK  213  A    between atoms: _518  and  _519
REMARK  214  A    between atoms: _524  and  _525
REMARK  215  A    between atoms: _527  and  _529
REMARK  216  A    between atoms: _529  and  _530
REMARK  217  A    between atoms: _529  and  _532
REMARK  218  A    between atoms: _532  and  _533
REMARK  219  A    between atoms: _536  and  _538
REMARK  220  A    between atoms: _538  and  _539
REMARK  221  A    between atoms: _538  and  _541
REMARK  222  A    between atoms: _541  and  _542
REMARK  223  A    between atoms: _542  and  _543
REMARK  224  A    between atoms: _543  and  _544
REMARK  225  A    between atoms: _544  and  _545
REMARK  226  A    between atoms: _549  and  _551
REMARK  227  A    between atoms: _551  and  _552
REMARK  228  A    between atoms: _551  and  _554
REMARK  229  A    between atoms: _554  and  _555
REMARK  230  A    between atoms: _560  and  _561
REMARK  231  A    between atoms: _563  and  _565
REMARK  232  A    between atoms: _565  and  _566
REMARK  233  A    between atoms: _565  and  _568
REMARK  234  A    between atoms: _568  and  _569
REMARK  235  A    between atoms: _574  and  _575
REMARK                            x       y       z     vdW  Elec       q    Type
REMARK                         _______ _______ _______ _____ _____    ______ ____
ROOT
ATOM      1  O   HOH     1      21.242  16.104  -2.514  0.00  0.00    +0.000 OA
ENDROOT
TORSDOF 0
REMARK  Name = ../refined-set-2016/3zze/3zze_pocket.pdb
REMARK  235 active torsions:
REMARK  status: ('A' for Active; 'I' for Inactive)
REMARK    1  A    between atoms: _1  and  _3
REMARK    2  A    between atoms: _3  and  _4
REMARK    3  A    between atoms: _3  and  _6
REMARK    4  A    between atoms: _9  and  _11
REMARK    5  A    between atoms: _11  and  _12
REMARK    6  A    between atoms: _11  and  _14
REMARK    7  A    between atoms: _14  and  _15
REMARK    8  A    between atoms: _18  and  _20
REMARK    9  A    between atoms: _20  and  _21
REMARK   10  A    between atoms: _23  and  _25
REMARK   11  A    between atoms: _25  and  _26
REMARK   12  A    between atoms: _25  and  _28
REMARK   13  A    between atoms: _28  and  _29
REMARK   14  A    between atoms: _29  and  _30
REMARK   15  A    between atoms: _30  and  _31
REMARK   16  A    between atoms: _40  and  _42
REMARK   17  A    between atoms: _42  and  _43
REMARK   18  A    between atoms: _45  and  _47
REMARK   19  A    between atoms: _47  and  _48
REMARK   20  A    between atoms: _50  and  _52
REMARK   21  A    between atoms: _52  and  _53
REMARK   22  A    between atoms: _52  and  _55
REMARK   23  A    between atoms: _57  and  _59
REMARK   24  A    between atoms: _59  and  _60
REMARK   25  A    between atoms: _59  and  _62
REMARK   26  A    between atoms: _65  and  _67
REMARK   27  A    between atoms: _67  and  _68
REMARK   28  A    between atoms: _67  and  _70
REMARK   29  A    between atoms: _70  and  _71
REMARK   30  A    between atoms: _76  and  _77
REMARK   31  A    between atoms: _79  and  _81
REMARK   32  A    between atoms: _81  and  _82
REMARK   33  A    between atoms: _81  and  _84
REMARK   34  A    between atoms: _84  and  _85
REMARK   35  A    between atoms: _90  and  _92
REMARK   36  A    between atoms: _92  and  _93
REMARK   37  A    between atoms: _95  and  _97
REMARK   38  A    between atoms: _97  and  _98
REMARK   39  A    between atoms: _97  and  _100
REMARK   40  A    between atoms: _100  and  _101
REMARK   41  A    between atoms: _106  and  _108
REMARK   42  A    between atoms: _108  and  _109
REMARK   43  A    between atoms: _108  and  _111
REMARK   44  A    between atoms: _113  and  _115
REMARK   45  A    between atoms: _115  and  _116
REMARK   46  A    between atoms: _119  and  _121
REMARK   47  A    between atoms: _121  and  _122
REMARK   48  A    between atoms: _121  and  _124
REMARK   49  A    between atoms: _127  and  _129
REMARK   50  A    between atoms: _129  and  _130
REMARK   51  A    between atoms: _129  and  _132
REMARK   52  A    between atoms: _132  and  _133
REMARK   53  A    between atoms: _133  and  _134
REMARK   54  A    between atoms: _134  and  _135
REMARK   55  A    between atoms: _135  and  _136
REMARK   56  A    between atoms: _140  and  _142
REMARK   57  A    between atoms: _142  and  _143
REMARK   58  A    between atoms: _142  and  _145
REMARK   59  A    between atoms: _145  and  _146
REMARK   60  A    between atoms: _148  and  _150
REMARK   61  A    between atoms: _150  and  _151
REMARK   62  A    between atoms: _150  and  _153
REMARK   63  A    between atoms: _153  and  _154
REMARK   64  A    between atoms: _154  and  _155
REMARK   65  A    between atoms: _157  and  _159
REMARK   66  A    between atoms: _159  and  _160
REMARK   67  A    between atoms: _159  and  _162
REMARK   68  A    between atoms: _162  and  _163
REMARK   69  A    between atoms: _166  and  _168
REMARK   70  A    between atoms: _168  and  _169
REMARK   71  A    between atoms: _168  and  _171
REMARK   72  A    between atoms: _171  and  _172
REMARK   73  A    between atoms: _174  and  _176
REMARK   74  A    between atoms: _176  and  _177
REMARK   75  A    between atoms: _176  and  _179
REMARK   76  A    between atoms: _182  and  _184
REMARK   77  A    between atoms: _184  and  _185
REMARK   78  A    between atoms: _184  and  _187
REMARK   79  A    between atoms: _190  and  _192
REMARK   80  A    between atoms: _192  and  _193
REMARK   81  A    between atoms: _192  and  _195
REMARK   82  A    between atoms: _195  and  _196
REMARK   83  A    between atoms: _200  and  _201
REMARK   84  A    between atoms: _206  and  _208
REMARK   85  A    between atoms: _208  and  _209
REMARK   86  A    between atoms: _208  and  _211
REMARK   87  A    between atoms: _211  and  _212
REMARK   88  A    between atoms: _217  and  _218
REMARK   89  A    between atoms: _220  and  _222
REMARK   90  A    between atoms: _222  and  _223
REMARK   91  A    between atoms: _222  and  _225
REMARK   92  A    between atoms: _225  and  _226
REMARK   93  A    between atoms: _226  and  _227
REMARK   94  A    between atoms: _229  and  _231
REMARK   95  A    between atoms: _231  and  _232
REMARK   96  A    between atoms: _231  and  _234
REMARK   97  A    between atoms: _234  and  _235
REMARK   98  A    between atoms: _235  and  _236
REMARK   99  A    between atoms: _236  and  _237
REMARK  100  A    between atoms: _237  and  _238
REMARK  101  A    between atoms: _242  and  _244
REMARK  102  A    between atoms: _244  and  _245
REMARK  103  A    between atoms: _244  and  _247
REMARK  104  A    between atoms: _247  and  _248
REMARK  105  A    between atoms: _253  and  _255
REMARK  106  A    between atoms: _255  and  _256
REMARK  107  A    between atoms: _258  and  _260
REMARK  108  A    between atoms: _260  and  _261
REMARK  109  A    between atoms: _260  and  _263
REMARK  110  A    between atoms: _263  and  _264
REMARK  111  A    between atoms: _267  and  _269
REMARK  112  A    between atoms: _269  and  _270
REMARK  113  A    between atoms: _269  and  _272
REMARK  114  A    between atoms: _272  and  _273
REMARK  115  A    between atoms: _276  and  _278
REMARK  116  A    between atoms: _278  and  _279
REMARK  117  A    between atoms: _278  and  _281
REMARK  118  A    between atoms: _281  and  _282
REMARK  119  A    between atoms: _282  and  _283
REMARK  120  A    between atoms: _283  and  _284
REMARK  121  A    between atoms: _293  and  _295
REMARK  122  A    between atoms: _295  and  _296
REMARK  123  A    between atoms: _295  and  _298
REMARK  124  A    between atoms: _298  and  _299
REMARK  125  A    between atoms: _304  and  _306
REMARK  126  A    between atoms: _306  and  _307
REMARK  127  A    between atoms: _306  and  _309
REMARK  128  A    between atoms: _309  and  _310
REMARK  129  A    between atoms: _310  and  _311
REMARK  130  A    between atoms: _311  and  _312
REMARK  131  A    between atoms: _321  and  _323
REMARK  132  A    between atoms: _323  and  _324
REMARK  133  A    between atoms: _323  and  _326
REMARK  134  A    between atoms: _326  and  _327
REMARK  135  A    between atoms: _332  and  _334
REMARK  136  A    between atoms: _334  and  _335
REMARK  137  A    between atoms: _334  and  _337
REMARK  138  A    between atoms: _337  and  _338
REMARK  139  A    between atoms: _341  and  _343
REMARK  140  A    between atoms: _343  and  _344
REMARK  141  A    between atoms: _347  and  _349
REMARK  142  A    between atoms: _349  and  _350
REMARK  143  A    between atoms: _353  and  _355
REMARK  144  A    between atoms: _355  and  _356
REMARK  145  A    between atoms: _355  and  _358
REMARK  146  A    between atoms: _358  and  _359
REMARK  147  A    between atoms: _359  and  _360
REMARK  148  A    between atoms: _360  and  _361
REMARK  149  A    between atoms: _370  and  _372
REMARK  150  A    between atoms: _372  and  _373
REMARK  151  A    between atoms: _372  and  _375
REMARK  152  A    between atoms: _375  and  _376
REMARK  153  A    between atoms: _381  and  _383
REMARK  154  A    between atoms: _383  and  _384
REMARK  155  A    between atoms: _383  and  _386
REMARK  156  A    between atoms: _388  and  _390
REMARK  157  A    between atoms: _390  and  _391
REMARK  158  A    between atoms: _390  and  _393
REMARK  159  A    between atoms: _393  and  _394
REMARK  160  A    between atoms: _394  and  _395
REMARK  161  A    between atoms: _397  and  _399
REMARK  162  A    between atoms: _399  and  _400
REMARK  163  A    between atoms: _399  and  _402
REMARK  164  A    between atoms: _402  and  _403
REMARK  165  A    between atoms: _406  and  _408
REMARK  166  A    between atoms: _408  and  _409
REMARK  167  A    between atoms: _408  and  _411
REMARK  168  A    between atoms: _411  and  _412
REMARK  169  A    between atoms: _415  and  _417
REMARK  170  A    between atoms: _417  and  _418
REMARK  171  A    between atoms: _417  and  _420
REMARK  172  A    between atoms: _420  and  _421
REMARK  173  A    between atoms: _421  and  _422
REMARK  174  A    between atoms: _422  and  _423
REMARK  175  A    between atoms: _423  and  _424
REMARK  176  A    between atoms: _428  and  _430
REMARK  177  A    between atoms: _430  and  _431
REMARK  178  A    between atoms: _430  and  _433
REMARK  179  A    between atoms: _436  and  _438
REMARK  180  A    between atoms: _438  and  _439
REMARK  181  A    between atoms: _442  and  _444
REMARK  182  A    between atoms: _444  and  _445
REMARK  183  A    between atoms: _444  and  _447
REMARK  184  A    between atoms: _447  and  _448
REMARK  185  A    between atoms: _451  and  _453
REMARK  186  A    between atoms: _453  and  _454
REMARK  187  A    between atoms: _453  and  _456
REMARK  188  A    between atoms: _456  and  _457
REMARK  189  A    between atoms: _463  and  _465
REMARK  190  A    between atoms: _465  and  _466
REMARK  191  A    between atoms: _465  and  _468
REMARK  192  A    between atoms: _468  and  _469
REMARK  193  A    between atoms: _472  and  _474
REMARK  194  A    between atoms: _474  and  _475
REMARK  195  A    between atoms: _478  and  _480
REMARK  196  A    between atoms: _480  and  _481
REMARK  197  A    between atoms: _480  and  _483
REMARK  198  A    between atoms: _483  and  _484
REMARK  199  A    between atoms: _484  and  _485
REMARK  200  A    between atoms: _485  and  _486
REMARK  201  A    between atoms: _495  and  _497
REMARK  202  A    between atoms: _497  and  _498
REMARK  203  A    between atoms: _497  and  _500
REMARK  204  A    between atoms: _500  and  _501
REMARK  205  A    between atoms: _504  and  _506
REMARK  206  A    between atoms: _506  and  _507
REMARK  207  A    between atoms: _506  and  _509
REMARK  208  A    between atoms: _509  and  _510
REMARK  209  A    between atoms: _510  and  _511
REMARK  210  A    between atoms: _513  and  _515
REMARK  211  A    between atoms: _515  and  _516
REMARK  212  A    between atoms: _515  and  _518
REMARK  213  A    between atoms: _518  and  _519
REMARK  214  A    between atoms: _524  and  _525
REMARK  215  A    between atoms: _527  and  _529
REMARK  216  A    between atoms: _529  and  _530
REMARK  217  A    between atoms: _529  and  _532
REMARK  218  A    between atoms: _532  and  _533
REMARK  219  A    between atoms: _536  and  _538
REMARK  220  A    between atoms: _538  and  _539
REMARK  221  A    between atoms: _538  and  _541
REMARK  222  A    between atoms: _541  and  _542
REMARK  223  A    between atoms: _542  and  _543
REMARK  224  A    between atoms: _543  and  _544
REMARK  225  A    between atoms: _544  and  _545
REMARK  226  A    between atoms: _549  and  _551
REMARK  227  A    between atoms: _551  and  _552
REMARK  228  A    between atoms: _551  and  _554
REMARK  229  A    between atoms: _554  and  _555
REMARK  230  A    between atoms: _560  and  _561
REMARK  231  A    between atoms: _563  and  _565
REMARK  232  A    between atoms: _565  and  _566
REMARK  233  A    between atoms: _565  and  _568
REMARK  234  A    between atoms: _568  and  _569
REMARK  235  A    between atoms: _574  and  _575
REMARK                            x       y       z     vdW  Elec       q    Type
REMARK                         _______ _______ _______ _____ _____    ______ ____
ROOT
ATOM      1  O   HOH     1      28.323  13.098   8.547  0.00  0.00    +0.000 OA
ENDROOT
TORSDOF 0
REMARK  Name = ../refined-set-2016/3zze/3zze_pocket.pdb
REMARK  235 active torsions:
REMARK  status: ('A' for Active; 'I' for Inactive)
REMARK    1  A    between atoms: _1  and  _3
REMARK    2  A    between atoms: _3  and  _4
REMARK    3  A    between atoms: _3  and  _6
REMARK    4  A    between atoms: _9  and  _11
REMARK    5  A    between atoms: _11  and  _12
REMARK    6  A    between atoms: _11  and  _14
REMARK    7  A    between atoms: _14  and  _15
REMARK    8  A    between atoms: _18  and  _20
REMARK    9  A    between atoms: _20  and  _21
REMARK   10  A    between atoms: _23  and  _25
REMARK   11  A    between atoms: _25  and  _26
REMARK   12  A    between atoms: _25  and  _28
REMARK   13  A    between atoms: _28  and  _29
REMARK   14  A    between atoms: _29  and  _30
REMARK   15  A    between atoms: _30  and  _31
REMARK   16  A    between atoms: _40  and  _42
REMARK   17  A    between atoms: _42  and  _43
REMARK   18  A    between atoms: _45  and  _47
REMARK   19  A    between atoms: _47  and  _48
REMARK   20  A    between atoms: _50  and  _52
REMARK   21  A    between atoms: _52  and  _53
REMARK   22  A    between atoms: _52  and  _55
REMARK   23  A    between atoms: _57  and  _59
REMARK   24  A    between atoms: _59  and  _60
REMARK   25  A    between atoms: _59  and  _62
REMARK   26  A    between atoms: _65  and  _67
REMARK   27  A    between atoms: _67  and  _68
REMARK   28  A    between atoms: _67  and  _70
REMARK   29  A    between atoms: _70  and  _71
REMARK   30  A    between atoms: _76  and  _77
REMARK   31  A    between atoms: _79  and  _81
REMARK   32  A    between atoms: _81  and  _82
REMARK   33  A    between atoms: _81  and  _84
REMARK   34  A    between atoms: _84  and  _85
REMARK   35  A    between atoms: _90  and  _92
REMARK   36  A    between atoms: _92  and  _93
REMARK   37  A    between atoms: _95  and  _97
REMARK   38  A    between atoms: _97  and  _98
REMARK   39  A    between atoms: _97  and  _100
REMARK   40  A    between atoms: _100  and  _101
REMARK   41  A    between atoms: _106  and  _108
REMARK   42  A    between atoms: _108  and  _109
REMARK   43  A    between atoms: _108  and  _111
REMARK   44  A    between atoms: _113  and  _115
REMARK   45  A    between atoms: _115  and  _116
REMARK   46  A    between atoms: _119  and  _121
REMARK   47  A    between atoms: _121  and  _122
REMARK   48  A    between atoms: _121  and  _124
REMARK   49  A    between atoms: _127  and  _129
REMARK   50  A    between atoms: _129  and  _130
REMARK   51  A    between atoms: _129  and  _132
REMARK   52  A    between atoms: _132  and  _133
REMARK   53  A    between atoms: _133  and  _134
REMARK   54  A    between atoms: _134  and  _135
REMARK   55  A    between atoms: _135  and  _136
REMARK   56  A    between atoms: _140  and  _142
REMARK   57  A    between atoms: _142  and  _143
REMARK   58  A    between atoms: _142  and  _145
REMARK   59  A    between atoms: _145  and  _146
REMARK   60  A    between atoms: _148  and  _150
REMARK   61  A    between atoms: _150  and  _151
REMARK   62  A    between atoms: _150  and  _153
REMARK   63  A    between atoms: _153  and  _154
REMARK   64  A    between atoms: _154  and  _155
REMARK   65  A    between atoms: _157  and  _159
REMARK   66  A    between atoms: _159  and  _160
REMARK   67  A    between atoms: _159  and  _162
REMARK   68  A    between atoms: _162  and  _163
REMARK   69  A    between atoms: _166  and  _168
REMARK   70  A    between atoms: _168  and  _169
REMARK   71  A    between atoms: _168  and  _171
REMARK   72  A    between atoms: _171  and  _172
REMARK   73  A    between atoms: _174  and  _176
REMARK   74  A    between atoms: _176  and  _177
REMARK   75  A    between atoms: _176  and  _179
REMARK   76  A    between atoms: _182  and  _184
REMARK   77  A    between atoms: _184  and  _185
REMARK   78  A    between atoms: _184  and  _187
REMARK   79  A    between atoms: _190  and  _192
REMARK   80  A    between atoms: _192  and  _193
REMARK   81  A    between atoms: _192  and  _195
REMARK   82  A    between atoms: _195  and  _196
REMARK   83  A    between atoms: _200  and  _201
REMARK   84  A    between atoms: _206  and  _208
REMARK   85  A    between atoms: _208  and  _209
REMARK   86  A    between atoms: _208  and  _211
REMARK   87  A    between atoms: _211  and  _212
REMARK   88  A    between atoms: _217  and  _218
REMARK   89  A    between atoms: _220  and  _222
REMARK   90  A    between atoms: _222  and  _223
REMARK   91  A    between atoms: _222  and  _225
REMARK   92  A    between atoms: _225  and  _226
REMARK   93  A    between atoms: _226  and  _227
REMARK   94  A    between atoms: _229  and  _231
REMARK   95  A    between atoms: _231  and  _232
REMARK   96  A    between atoms: _231  and  _234
REMARK   97  A    between atoms: _234  and  _235
REMARK   98  A    between atoms: _235  and  _236
REMARK   99  A    between atoms: _236  and  _237
REMARK  100  A    between atoms: _237  and  _238
REMARK  101  A    between atoms: _242  and  _244
REMARK  102  A    between atoms: _244  and  _245
REMARK  103  A    between atoms: _244  and  _247
REMARK  104  A    between atoms: _247  and  _248
REMARK  105  A    between atoms: _253  and  _255
REMARK  106  A    between atoms: _255  and  _256
REMARK  107  A    between atoms: _258  and  _260
REMARK  108  A    between atoms: _260  and  _261
REMARK  109  A    between atoms: _260  and  _263
REMARK  110  A    between atoms: _263  and  _264
REMARK  111  A    between atoms: _267  and  _269
REMARK  112  A    between atoms: _269  and  _270
REMARK  113  A    between atoms: _269  and  _272
REMARK  114  A    between atoms: _272  and  _273
REMARK  115  A    between atoms: _276  and  _278
REMARK  116  A    between atoms: _278  and  _279
REMARK  117  A    between atoms: _278  and  _281
REMARK  118  A    between atoms: _281  and  _282
REMARK  119  A    between atoms: _282  and  _283
REMARK  120  A    between atoms: _283  and  _284
REMARK  121  A    between atoms: _293  and  _295
REMARK  122  A    between atoms: _295  and  _296
REMARK  123  A    between atoms: _295  and  _298
REMARK  124  A    between atoms: _298  and  _299
REMARK  125  A    between atoms: _304  and  _306
REMARK  126  A    between atoms: _306  and  _307
REMARK  127  A    between atoms: _306  and  _309
REMARK  128  A    between atoms: _309  and  _310
REMARK  129  A    between atoms: _310  and  _311
REMARK  130  A    between atoms: _311  and  _312
REMARK  131  A    between atoms: _321  and  _323
REMARK  132  A    between atoms: _323  and  _324
REMARK  133  A    between atoms: _323  and  _326
REMARK  134  A    between atoms: _326  and  _327
REMARK  135  A    between atoms: _332  and  _334
REMARK  136  A    between atoms: _334  and  _335
REMARK  137  A    between atoms: _334  and  _337
REMARK  138  A    between atoms: _337  and  _338
REMARK  139  A    between atoms: _341  and  _343
REMARK  140  A    between atoms: _343  and  _344
REMARK  141  A    between atoms: _347  and  _349
REMARK  142  A    between atoms: _349  and  _350
REMARK  143  A    between atoms: _353  and  _355
REMARK  144  A    between atoms: _355  and  _356
REMARK  145  A    between atoms: _355  and  _358
REMARK  146  A    between atoms: _358  and  _359
REMARK  147  A    between atoms: _359  and  _360
REMARK  148  A    between atoms: _360  and  _361
REMARK  149  A    between atoms: _370  and  _372
REMARK  150  A    between atoms: _372  and  _373
REMARK  151  A    between atoms: _372  and  _375
REMARK  152  A    between atoms: _375  and  _376
REMARK  153  A    between atoms: _381  and  _383
REMARK  154  A    between atoms: _383  and  _384
REMARK  155  A    between atoms: _383  and  _386
REMARK  156  A    between atoms: _388  and  _390
REMARK  157  A    between atoms: _390  and  _391
REMARK  158  A    between atoms: _390  and  _393
REMARK  159  A    between atoms: _393  and  _394
REMARK  160  A    between atoms: _394  and  _395
REMARK  161  A    between atoms: _397  and  _399
REMARK  162  A    between atoms: _399  and  _400
REMARK  163  A    between atoms: _399  and  _402
REMARK  164  A    between atoms: _402  and  _403
REMARK  165  A    between atoms: _406  and  _408
REMARK  166  A    between atoms: _408  and  _409
REMARK  167  A    between atoms: _408  and  _411
REMARK  168  A    between atoms: _411  and  _412
REMARK  169  A    between atoms: _415  and  _417
REMARK  170  A    between atoms: _417  and  _418
REMARK  171  A    between atoms: _417  and  _420
REMARK  172  A    between atoms: _420  and  _421
REMARK  173  A    between atoms: _421  and  _422
REMARK  174  A    between atoms: _422  and  _423
REMARK  175  A    between atoms: _423  and  _424
REMARK  176  A    between atoms: _428  and  _430
REMARK  177  A    between atoms: _430  and  _431
REMARK  178  A    between atoms: _430  and  _433
REMARK  179  A    between atoms: _436  and  _438
REMARK  180  A    between atoms: _438  and  _439
REMARK  181  A    between atoms: _442  and  _444
REMARK  182  A    between atoms: _444  and  _445
REMARK  183  A    between atoms: _444  and  _447
REMARK  184  A    between atoms: _447  and  _448
REMARK  185  A    between atoms: _451  and  _453
REMARK  186  A    between atoms: _453  and  _454
REMARK  187  A    between atoms: _453  and  _456
REMARK  188  A    between atoms: _456  and  _457
REMARK  189  A    between atoms: _463  and  _465
REMARK  190  A    between atoms: _465  and  _466
REMARK  191  A    between atoms: _465  and  _468
REMARK  192  A    between atoms: _468  and  _469
REMARK  193  A    between atoms: _472  and  _474
REMARK  194  A    between atoms: _474  and  _475
REMARK  195  A    between atoms: _478  and  _480
REMARK  196  A    between atoms: _480  and  _481
REMARK  197  A    between atoms: _480  and  _483
REMARK  198  A    between atoms: _483  and  _484
REMARK  199  A    between atoms: _484  and  _485
REMARK  200  A    between atoms: _485  and  _486
REMARK  201  A    between atoms: _495  and  _497
REMARK  202  A    between atoms: _497  and  _498
REMARK  203  A    between atoms: _497  and  _500
REMARK  204  A    between atoms: _500  and  _501
REMARK  205  A    between atoms: _504  and  _506
REMARK  206  A    between atoms: _506  and  _507
REMARK  207  A    between atoms: _506  and  _509
REMARK  208  A    between atoms: _509  and  _510
REMARK  209  A    between atoms: _510  and  _511
REMARK  210  A    between atoms: _513  and  _515
REMARK  211  A    between atoms: _515  and  _516
REMARK  212  A    between atoms: _515  and  _518
REMARK  213  A    between atoms: _518  and  _519
REMARK  214  A    between atoms: _524  and  _525
REMARK  215  A    between atoms: _527  and  _529
REMARK  216  A    between atoms: _529  and  _530
REMARK  217  A    between atoms: _529  and  _532
REMARK  218  A    between atoms: _532  and  _533
REMARK  219  A    between atoms: _536  and  _538
REMARK  220  A    between atoms: _538  and  _539
REMARK  221  A    between atoms: _538  and  _541
REMARK  222  A    between atoms: _541  and  _542
REMARK  223  A    between atoms: _542  and  _543
REMARK  224  A    between atoms: _543  and  _544
REMARK  225  A    between atoms: _544  and  _545
REMARK  226  A    between atoms: _549  and  _551
REMARK  227  A    between atoms: _551  and  _552
REMARK  228  A    between atoms: _551  and  _554
REMARK  229  A    between atoms: _554  and  _555
REMARK  230  A    between atoms: _560  and  _561
REMARK  231  A    between atoms: _563  and  _565
REMARK  232  A    between atoms: _565  and  _566
REMARK  233  A    between atoms: _565  and  _568
REMARK  234  A    between atoms: _568  and  _569
REMARK  235  A    between atoms: _574  and  _575
REMARK                            x       y       z     vdW  Elec       q    Type
REMARK                         _______ _______ _______ _____ _____    ______ ____
ROOT
ATOM      1  O   HOH     1      23.317  21.329   3.592  0.00  0.00    +0.000 OA
ENDROOT
TORSDOF 0
REMARK  Name = ../refined-set-2016/3zze/3zze_pocket.pdb
REMARK  235 active torsions:
REMARK  status: ('A' for Active; 'I' for Inactive)
REMARK    1  A    between atoms: _1  and  _3
REMARK    2  A    between atoms: _3  and  _4
REMARK    3  A    between atoms: _3  and  _6
REMARK    4  A    between atoms: _9  and  _11
REMARK    5  A    between atoms: _11  and  _12
REMARK    6  A    between atoms: _11  and  _14
REMARK    7  A    between atoms: _14  and  _15
REMARK    8  A    between atoms: _18  and  _20
REMARK    9  A    between atoms: _20  and  _21
REMARK   10  A    between atoms: _23  and  _25
REMARK   11  A    between atoms: _25  and  _26
REMARK   12  A    between atoms: _25  and  _28
REMARK   13  A    between atoms: _28  and  _29
REMARK   14  A    between atoms: _29  and  _30
REMARK   15  A    between atoms: _30  and  _31
REMARK   16  A    between atoms: _40  and  _42
REMARK   17  A    between atoms: _42  and  _43
REMARK   18  A    between atoms: _45  and  _47
REMARK   19  A    between atoms: _47  and  _48
REMARK   20  A    between atoms: _50  and  _52
REMARK   21  A    between atoms: _52  and  _53
REMARK   22  A    between atoms: _52  and  _55
REMARK   23  A    between atoms: _57  and  _59
REMARK   24  A    between atoms: _59  and  _60
REMARK   25  A    between atoms: _59  and  _62
REMARK   26  A    between atoms: _65  and  _67
REMARK   27  A    between atoms: _67  and  _68
REMARK   28  A    between atoms: _67  and  _70
REMARK   29  A    between atoms: _70  and  _71
REMARK   30  A    between atoms: _76  and  _77
REMARK   31  A    between atoms: _79  and  _81
REMARK   32  A    between atoms: _81  and  _82
REMARK   33  A    between atoms: _81  and  _84
REMARK   34  A    between atoms: _84  and  _85
REMARK   35  A    between atoms: _90  and  _92
REMARK   36  A    between atoms: _92  and  _93
REMARK   37  A    between atoms: _95  and  _97
REMARK   38  A    between atoms: _97  and  _98
REMARK   39  A    between atoms: _97  and  _100
REMARK   40  A    between atoms: _100  and  _101
REMARK   41  A    between atoms: _106  and  _108
REMARK   42  A    between atoms: _108  and  _109
REMARK   43  A    between atoms: _108  and  _111
REMARK   44  A    between atoms: _113  and  _115
REMARK   45  A    between atoms: _115  and  _116
REMARK   46  A    between atoms: _119  and  _121
REMARK   47  A    between atoms: _121  and  _122
REMARK   48  A    between atoms: _121  and  _124
REMARK   49  A    between atoms: _127  and  _129
REMARK   50  A    between atoms: _129  and  _130
REMARK   51  A    between atoms: _129  and  _132
REMARK   52  A    between atoms: _132  and  _133
REMARK   53  A    between atoms: _133  and  _134
REMARK   54  A    between atoms: _134  and  _135
REMARK   55  A    between atoms: _135  and  _136
REMARK   56  A    between atoms: _140  and  _142
REMARK   57  A    between atoms: _142  and  _143
REMARK   58  A    between atoms: _142  and  _145
REMARK   59  A    between atoms: _145  and  _146
REMARK   60  A    between atoms: _148  and  _150
REMARK   61  A    between atoms: _150  and  _151
REMARK   62  A    between atoms: _150  and  _153
REMARK   63  A    between atoms: _153  and  _154
REMARK   64  A    between atoms: _154  and  _155
REMARK   65  A    between atoms: _157  and  _159
REMARK   66  A    between atoms: _159  and  _160
REMARK   67  A    between atoms: _159  and  _162
REMARK   68  A    between atoms: _162  and  _163
REMARK   69  A    between atoms: _166  and  _168
REMARK   70  A    between atoms: _168  and  _169
REMARK   71  A    between atoms: _168  and  _171
REMARK   72  A    between atoms: _171  and  _172
REMARK   73  A    between atoms: _174  and  _176
REMARK   74  A    between atoms: _176  and  _177
REMARK   75  A    between atoms: _176  and  _179
REMARK   76  A    between atoms: _182  and  _184
REMARK   77  A    between atoms: _184  and  _185
REMARK   78  A    between atoms: _184  and  _187
REMARK   79  A    between atoms: _190  and  _192
REMARK   80  A    between atoms: _192  and  _193
REMARK   81  A    between atoms: _192  and  _195
REMARK   82  A    between atoms: _195  and  _196
REMARK   83  A    between atoms: _200  and  _201
REMARK   84  A    between atoms: _206  and  _208
REMARK   85  A    between atoms: _208  and  _209
REMARK   86  A    between atoms: _208  and  _211
REMARK   87  A    between atoms: _211  and  _212
REMARK   88  A    between atoms: _217  and  _218
REMARK   89  A    between atoms: _220  and  _222
REMARK   90  A    between atoms: _222  and  _223
REMARK   91  A    between atoms: _222  and  _225
REMARK   92  A    between atoms: _225  and  _226
REMARK   93  A    between atoms: _226  and  _227
REMARK   94  A    between atoms: _229  and  _231
REMARK   95  A    between atoms: _231  and  _232
REMARK   96  A    between atoms: _231  and  _234
REMARK   97  A    between atoms: _234  and  _235
REMARK   98  A    between atoms: _235  and  _236
REMARK   99  A    between atoms: _236  and  _237
REMARK  100  A    between atoms: _237  and  _238
REMARK  101  A    between atoms: _242  and  _244
REMARK  102  A    between atoms: _244  and  _245
REMARK  103  A    between atoms: _244  and  _247
REMARK  104  A    between atoms: _247  and  _248
REMARK  105  A    between atoms: _253  and  _255
REMARK  106  A    between atoms: _255  and  _256
REMARK  107  A    between atoms: _258  and  _260
REMARK  108  A    between atoms: _260  and  _261
REMARK  109  A    between atoms: _260  and  _263
REMARK  110  A    between atoms: _263  and  _264
REMARK  111  A    between atoms: _267  and  _269
REMARK  112  A    between atoms: _269  and  _270
REMARK  113  A    between atoms: _269  and  _272
REMARK  114  A    between atoms: _272  and  _273
REMARK  115  A    between atoms: _276  and  _278
REMARK  116  A    between atoms: _278  and  _279
REMARK  117  A    between atoms: _278  and  _281
REMARK  118  A    between atoms: _281  and  _282
REMARK  119  A    between atoms: _282  and  _283
REMARK  120  A    between atoms: _283  and  _284
REMARK  121  A    between atoms: _293  and  _295
REMARK  122  A    between atoms: _295  and  _296
REMARK  123  A    between atoms: _295  and  _298
REMARK  124  A    between atoms: _298  and  _299
REMARK  125  A    between atoms: _304  and  _306
REMARK  126  A    between atoms: _306  and  _307
REMARK  127  A    between atoms: _306  and  _309
REMARK  128  A    between atoms: _309  and  _310
REMARK  129  A    between atoms: _310  and  _311
REMARK  130  A    between atoms: _311  and  _312
REMARK  131  A    between atoms: _321  and  _323
REMARK  132  A    between atoms: _323  and  _324
REMARK  133  A    between atoms: _323  and  _326
REMARK  134  A    between atoms: _326  and  _327
REMARK  135  A    between atoms: _332  and  _334
REMARK  136  A    between atoms: _334  and  _335
REMARK  137  A    between atoms: _334  and  _337
REMARK  138  A    between atoms: _337  and  _338
REMARK  139  A    between atoms: _341  and  _343
REMARK  140  A    between atoms: _343  and  _344
REMARK  141  A    between atoms: _347  and  _349
REMARK  142  A    between atoms: _349  and  _350
REMARK  143  A    between atoms: _353  and  _355
REMARK  144  A    between atoms: _355  and  _356
REMARK  145  A    between atoms: _355  and  _358
REMARK  146  A    between atoms: _358  and  _359
REMARK  147  A    between atoms: _359  and  _360
REMARK  148  A    between atoms: _360  and  _361
REMARK  149  A    between atoms: _370  and  _372
REMARK  150  A    between atoms: _372  and  _373
REMARK  151  A    between atoms: _372  and  _375
REMARK  152  A    between atoms: _375  and  _376
REMARK  153  A    between atoms: _381  and  _383
REMARK  154  A    between atoms: _383  and  _384
REMARK  155  A    between atoms: _383  and  _386
REMARK  156  A    between atoms: _388  and  _390
REMARK  157  A    between atoms: _390  and  _391
REMARK  158  A    between atoms: _390  and  _393
REMARK  159  A    between atoms: _393  and  _394
REMARK  160  A    between atoms: _394  and  _395
REMARK  161  A    between atoms: _397  and  _399
REMARK  162  A    between atoms: _399  and  _400
REMARK  163  A    between atoms: _399  and  _402
REMARK  164  A    between atoms: _402  and  _403
REMARK  165  A    between atoms: _406  and  _408
REMARK  166  A    between atoms: _408  and  _409
REMARK  167  A    between atoms: _408  and  _411
REMARK  168  A    between atoms: _411  and  _412
REMARK  169  A    between atoms: _415  and  _417
REMARK  170  A    between atoms: _417  and  _418
REMARK  171  A    between atoms: _417  and  _420
REMARK  172  A    between atoms: _420  and  _421
REMARK  173  A    between atoms: _421  and  _422
REMARK  174  A    between atoms: _422  and  _423
REMARK  175  A    between atoms: _423  and  _424
REMARK  176  A    between atoms: _428  and  _430
REMARK  177  A    between atoms: _430  and  _431
REMARK  178  A    between atoms: _430  and  _433
REMARK  179  A    between atoms: _436  and  _438
REMARK  180  A    between atoms: _438  and  _439
REMARK  181  A    between atoms: _442  and  _444
REMARK  182  A    between atoms: _444  and  _445
REMARK  183  A    between atoms: _444  and  _447
REMARK  184  A    between atoms: _447  and  _448
REMARK  185  A    between atoms: _451  and  _453
REMARK  186  A    between atoms: _453  and  _454
REMARK  187  A    between atoms: _453  and  _456
REMARK  188  A    between atoms: _456  and  _457
REMARK  189  A    between atoms: _463  and  _465
REMARK  190  A    between atoms: _465  and  _466
REMARK  191  A    between atoms: _465  and  _468
REMARK  192  A    between atoms: _468  and  _469
REMARK  193  A    between atoms: _472  and  _474
REMARK  194  A    between atoms: _474  and  _475
REMARK  195  A    between atoms: _478  and  _480
REMARK  196  A    between atoms: _480  and  _481
REMARK  197  A    between atoms: _480  and  _483
REMARK  198  A    between atoms: _483  and  _484
REMARK  199  A    between atoms: _484  and  _485
REMARK  200  A    between atoms: _485  and  _486
REMARK  201  A    between atoms: _495  and  _497
REMARK  202  A    between atoms: _497  and  _498
REMARK  203  A    between atoms: _497  and  _500
REMARK  204  A    between atoms: _500  and  _501
REMARK  205  A    between atoms: _504  and  _506
REMARK  206  A    between atoms: _506  and  _507
REMARK  207  A    between atoms: _506  and  _509
REMARK  208  A    between atoms: _509  and  _510
REMARK  209  A    between atoms: _510  and  _511
REMARK  210  A    between atoms: _513  and  _515
REMARK  211  A    between atoms: _515  and  _516
REMARK  212  A    between atoms: _515  and  _518
REMARK  213  A    between atoms: _518  and  _519
REMARK  214  A    between atoms: _524  and  _525
REMARK  215  A    between atoms: _527  and  _529
REMARK  216  A    between atoms: _529  and  _530
REMARK  217  A    between atoms: _529  and  _532
REMARK  218  A    between atoms: _532  and  _533
REMARK  219  A    between atoms: _536  and  _538
REMARK  220  A    between atoms: _538  and  _539
REMARK  221  A    between atoms: _538  and  _541
REMARK  222  A    between atoms: _541  and  _542
REMARK  223  A    between atoms: _542  and  _543
REMARK  224  A    between atoms: _543  and  _544
REMARK  225  A    between atoms: _544  and  _545
REMARK  226  A    between atoms: _549  and  _551
REMARK  227  A    between atoms: _551  and  _552
REMARK  228  A    between atoms: _551  and  _554
REMARK  229  A    between atoms: _554  and  _555
REMARK  230  A    between atoms: _560  and  _561
REMARK  231  A    between atoms: _563  and  _565
REMARK  232  A    between atoms: _565  and  _566
REMARK  233  A    between atoms: _565  and  _568
REMARK  234  A    between atoms: _568  and  _569
REMARK  235  A    between atoms: _574  and  _575
REMARK                            x       y       z     vdW  Elec       q    Type
REMARK                         _______ _______ _______ _____ _____    ______ ____
ROOT
ATOM      1  O   HOH     1      25.644  14.303   4.041  0.00  0.00    +0.000 OA
ENDROOT
TORSDOF 0
REMARK  Name = ../refined-set-2016/3zze/3zze_pocket.pdb
REMARK  235 active torsions:
REMARK  status: ('A' for Active; 'I' for Inactive)
REMARK    1  A    between atoms: _1  and  _3
REMARK    2  A    between atoms: _3  and  _4
REMARK    3  A    between atoms: _3  and  _6
REMARK    4  A    between atoms: _9  and  _11
REMARK    5  A    between atoms: _11  and  _12
REMARK    6  A    between atoms: _11  and  _14
REMARK    7  A    between atoms: _14  and  _15
REMARK    8  A    between atoms: _18  and  _20
REMARK    9  A    between atoms: _20  and  _21
REMARK   10  A    between atoms: _23  and  _25
REMARK   11  A    between atoms: _25  and  _26
REMARK   12  A    between atoms: _25  and  _28
REMARK   13  A    between atoms: _28  and  _29
REMARK   14  A    between atoms: _29  and  _30
REMARK   15  A    between atoms: _30  and  _31
REMARK   16  A    between atoms: _40  and  _42
REMARK   17  A    between atoms: _42  and  _43
REMARK   18  A    between atoms: _45  and  _47
REMARK   19  A    between atoms: _47  and  _48
REMARK   20  A    between atoms: _50  and  _52
REMARK   21  A    between atoms: _52  and  _53
REMARK   22  A    between atoms: _52  and  _55
REMARK   23  A    between atoms: _57  and  _59
REMARK   24  A    between atoms: _59  and  _60
REMARK   25  A    between atoms: _59  and  _62
REMARK   26  A    between atoms: _65  and  _67
REMARK   27  A    between atoms: _67  and  _68
REMARK   28  A    between atoms: _67  and  _70
REMARK   29  A    between atoms: _70  and  _71
REMARK   30  A    between atoms: _76  and  _77
REMARK   31  A    between atoms: _79  and  _81
REMARK   32  A    between atoms: _81  and  _82
REMARK   33  A    between atoms: _81  and  _84
REMARK   34  A    between atoms: _84  and  _85
REMARK   35  A    between atoms: _90  and  _92
REMARK   36  A    between atoms: _92  and  _93
REMARK   37  A    between atoms: _95  and  _97
REMARK   38  A    between atoms: _97  and  _98
REMARK   39  A    between atoms: _97  and  _100
REMARK   40  A    between atoms: _100  and  _101
REMARK   41  A    between atoms: _106  and  _108
REMARK   42  A    between atoms: _108  and  _109
REMARK   43  A    between atoms: _108  and  _111
REMARK   44  A    between atoms: _113  and  _115
REMARK   45  A    between atoms: _115  and  _116
REMARK   46  A    between atoms: _119  and  _121
REMARK   47  A    between atoms: _121  and  _122
REMARK   48  A    between atoms: _121  and  _124
REMARK   49  A    between atoms: _127  and  _129
REMARK   50  A    between atoms: _129  and  _130
REMARK   51  A    between atoms: _129  and  _132
REMARK   52  A    between atoms: _132  and  _133
REMARK   53  A    between atoms: _133  and  _134
REMARK   54  A    between atoms: _134  and  _135
REMARK   55  A    between atoms: _135  and  _136
REMARK   56  A    between atoms: _140  and  _142
REMARK   57  A    between atoms: _142  and  _143
REMARK   58  A    between atoms: _142  and  _145
REMARK   59  A    between atoms: _145  and  _146
REMARK   60  A    between atoms: _148  and  _150
REMARK   61  A    between atoms: _150  and  _151
REMARK   62  A    between atoms: _150  and  _153
REMARK   63  A    between atoms: _153  and  _154
REMARK   64  A    between atoms: _154  and  _155
REMARK   65  A    between atoms: _157  and  _159
REMARK   66  A    between atoms: _159  and  _160
REMARK   67  A    between atoms: _159  and  _162
REMARK   68  A    between atoms: _162  and  _163
REMARK   69  A    between atoms: _166  and  _168
REMARK   70  A    between atoms: _168  and  _169
REMARK   71  A    between atoms: _168  and  _171
REMARK   72  A    between atoms: _171  and  _172
REMARK   73  A    between atoms: _174  and  _176
REMARK   74  A    between atoms: _176  and  _177
REMARK   75  A    between atoms: _176  and  _179
REMARK   76  A    between atoms: _182  and  _184
REMARK   77  A    between atoms: _184  and  _185
REMARK   78  A    between atoms: _184  and  _187
REMARK   79  A    between atoms: _190  and  _192
REMARK   80  A    between atoms: _192  and  _193
REMARK   81  A    between atoms: _192  and  _195
REMARK   82  A    between atoms: _195  and  _196
REMARK   83  A    between atoms: _200  and  _201
REMARK   84  A    between atoms: _206  and  _208
REMARK   85  A    between atoms: _208  and  _209
REMARK   86  A    between atoms: _208  and  _211
REMARK   87  A    between atoms: _211  and  _212
REMARK   88  A    between atoms: _217  and  _218
REMARK   89  A    between atoms: _220  and  _222
REMARK   90  A    between atoms: _222  and  _223
REMARK   91  A    between atoms: _222  and  _225
REMARK   92  A    between atoms: _225  and  _226
REMARK   93  A    between atoms: _226  and  _227
REMARK   94  A    between atoms: _229  and  _231
REMARK   95  A    between atoms: _231  and  _232
REMARK   96  A    between atoms: _231  and  _234
REMARK   97  A    between atoms: _234  and  _235
REMARK   98  A    between atoms: _235  and  _236
REMARK   99  A    between atoms: _236  and  _237
REMARK  100  A    between atoms: _237  and  _238
REMARK  101  A    between atoms: _242  and  _244
REMARK  102  A    between atoms: _244  and  _245
REMARK  103  A    between atoms: _244  and  _247
REMARK  104  A    between atoms: _247  and  _248
REMARK  105  A    between atoms: _253  and  _255
REMARK  106  A    between atoms: _255  and  _256
REMARK  107  A    between atoms: _258  and  _260
REMARK  108  A    between atoms: _260  and  _261
REMARK  109  A    between atoms: _260  and  _263
REMARK  110  A    between atoms: _263  and  _264
REMARK  111  A    between atoms: _267  and  _269
REMARK  112  A    between atoms: _269  and  _270
REMARK  113  A    between atoms: _269  and  _272
REMARK  114  A    between atoms: _272  and  _273
REMARK  115  A    between atoms: _276  and  _278
REMARK  116  A    between atoms: _278  and  _279
REMARK  117  A    between atoms: _278  and  _281
REMARK  118  A    between atoms: _281  and  _282
REMARK  119  A    between atoms: _282  and  _283
REMARK  120  A    between atoms: _283  and  _284
REMARK  121  A    between atoms: _293  and  _295
REMARK  122  A    between atoms: _295  and  _296
REMARK  123  A    between atoms: _295  and  _298
REMARK  124  A    between atoms: _298  and  _299
REMARK  125  A    between atoms: _304  and  _306
REMARK  126  A    between atoms: _306  and  _307
REMARK  127  A    between atoms: _306  and  _309
REMARK  128  A    between atoms: _309  and  _310
REMARK  129  A    between atoms: _310  and  _311
REMARK  130  A    between atoms: _311  and  _312
REMARK  131  A    between atoms: _321  and  _323
REMARK  132  A    between atoms: _323  and  _324
REMARK  133  A    between atoms: _323  and  _326
REMARK  134  A    between atoms: _326  and  _327
REMARK  135  A    between atoms: _332  and  _334
REMARK  136  A    between atoms: _334  and  _335
REMARK  137  A    between atoms: _334  and  _337
REMARK  138  A    between atoms: _337  and  _338
REMARK  139  A    between atoms: _341  and  _343
REMARK  140  A    between atoms: _343  and  _344
REMARK  141  A    between atoms: _347  and  _349
REMARK  142  A    between atoms: _349  and  _350
REMARK  143  A    between atoms: _353  and  _355
REMARK  144  A    between atoms: _355  and  _356
REMARK  145  A    between atoms: _355  and  _358
REMARK  146  A    between atoms: _358  and  _359
REMARK  147  A    between atoms: _359  and  _360
REMARK  148  A    between atoms: _360  and  _361
REMARK  149  A    between atoms: _370  and  _372
REMARK  150  A    between atoms: _372  and  _373
REMARK  151  A    between atoms: _372  and  _375
REMARK  152  A    between atoms: _375  and  _376
REMARK  153  A    between atoms: _381  and  _383
REMARK  154  A    between atoms: _383  and  _384
REMARK  155  A    between atoms: _383  and  _386
REMARK  156  A    between atoms: _388  and  _390
REMARK  157  A    between atoms: _390  and  _391
REMARK  158  A    between atoms: _390  and  _393
REMARK  159  A    between atoms: _393  and  _394
REMARK  160  A    between atoms: _394  and  _395
REMARK  161  A    between atoms: _397  and  _399
REMARK  162  A    between atoms: _399  and  _400
REMARK  163  A    between atoms: _399  and  _402
REMARK  164  A    between atoms: _402  and  _403
REMARK  165  A    between atoms: _406  and  _408
REMARK  166  A    between atoms: _408  and  _409
REMARK  167  A    between atoms: _408  and  _411
REMARK  168  A    between atoms: _411  and  _412
REMARK  169  A    between atoms: _415  and  _417
REMARK  170  A    between atoms: _417  and  _418
REMARK  171  A    between atoms: _417  and  _420
REMARK  172  A    between atoms: _420  and  _421
REMARK  173  A    between atoms: _421  and  _422
REMARK  174  A    between atoms: _422  and  _423
REMARK  175  A    between atoms: _423  and  _424
REMARK  176  A    between atoms: _428  and  _430
REMARK  177  A    between atoms: _430  and  _431
REMARK  178  A    between atoms: _430  and  _433
REMARK  179  A    between atoms: _436  and  _438
REMARK  180  A    between atoms: _438  and  _439
REMARK  181  A    between atoms: _442  and  _444
REMARK  182  A    between atoms: _444  and  _445
REMARK  183  A    between atoms: _444  and  _447
REMARK  184  A    between atoms: _447  and  _448
REMARK  185  A    between atoms: _451  and  _453
REMARK  186  A    between atoms: _453  and  _454
REMARK  187  A    between atoms: _453  and  _456
REMARK  188  A    between atoms: _456  and  _457
REMARK  189  A    between atoms: _463  and  _465
REMARK  190  A    between atoms: _465  and  _466
REMARK  191  A    between atoms: _465  and  _468
REMARK  192  A    between atoms: _468  and  _469
REMARK  193  A    between atoms: _472  and  _474
REMARK  194  A    between atoms: _474  and  _475
REMARK  195  A    between atoms: _478  and  _480
REMARK  196  A    between atoms: _480  and  _481
REMARK  197  A    between atoms: _480  and  _483
REMARK  198  A    between atoms: _483  and  _484
REMARK  199  A    between atoms: _484  and  _485
REMARK  200  A    between atoms: _485  and  _486
REMARK  201  A    between atoms: _495  and  _497
REMARK  202  A    between atoms: _497  and  _498
REMARK  203  A    between atoms: _497  and  _500
REMARK  204  A    between atoms: _500  and  _501
REMARK  205  A    between atoms: _504  and  _506
REMARK  206  A    between atoms: _506  and  _507
REMARK  207  A    between atoms: _506  and  _509
REMARK  208  A    between atoms: _509  and  _510
REMARK  209  A    between atoms: _510  and  _511
REMARK  210  A    between atoms: _513  and  _515
REMARK  211  A    between atoms: _515  and  _516
REMARK  212  A    between atoms: _515  and  _518
REMARK  213  A    between atoms: _518  and  _519
REMARK  214  A    between atoms: _524  and  _525
REMARK  215  A    between atoms: _527  and  _529
REMARK  216  A    between atoms: _529  and  _530
REMARK  217  A    between atoms: _529  and  _532
REMARK  218  A    between atoms: _532  and  _533
REMARK  219  A    between atoms: _536  and  _538
REMARK  220  A    between atoms: _538  and  _539
REMARK  221  A    between atoms: _538  and  _541
REMARK  222  A    between atoms: _541  and  _542
REMARK  223  A    between atoms: _542  and  _543
REMARK  224  A    between atoms: _543  and  _544
REMARK  225  A    between atoms: _544  and  _545
REMARK  226  A    between atoms: _549  and  _551
REMARK  227  A    between atoms: _551  and  _552
REMARK  228  A    between atoms: _551  and  _554
REMARK  229  A    between atoms: _554  and  _555
REMARK  230  A    between atoms: _560  and  _561
REMARK  231  A    between atoms: _563  and  _565
REMARK  232  A    between atoms: _565  and  _566
REMARK  233  A    between atoms: _565  and  _568
REMARK  234  A    between atoms: _568  and  _569
REMARK  235  A    between atoms: _574  and  _575
REMARK                            x       y       z     vdW  Elec       q    Type
REMARK                         _______ _______ _______ _____ _____    ______ ____
ROOT
ATOM      1  O   HOH     1      24.553  20.626   1.253  0.00  0.00    +0.000 OA
ENDROOT
TORSDOF 0
REMARK  Name = ../refined-set-2016/3zze/3zze_pocket.pdb
REMARK  235 active torsions:
REMARK  status: ('A' for Active; 'I' for Inactive)
REMARK    1  A    between atoms: _1  and  _3
REMARK    2  A    between atoms: _3  and  _4
REMARK    3  A    between atoms: _3  and  _6
REMARK    4  A    between atoms: _9  and  _11
REMARK    5  A    between atoms: _11  and  _12
REMARK    6  A    between atoms: _11  and  _14
REMARK    7  A    between atoms: _14  and  _15
REMARK    8  A    between atoms: _18  and  _20
REMARK    9  A    between atoms: _20  and  _21
REMARK   10  A    between atoms: _23  and  _25
REMARK   11  A    between atoms: _25  and  _26
REMARK   12  A    between atoms: _25  and  _28
REMARK   13  A    between atoms: _28  and  _29
REMARK   14  A    between atoms: _29  and  _30
REMARK   15  A    between atoms: _30  and  _31
REMARK   16  A    between atoms: _40  and  _42
REMARK   17  A    between atoms: _42  and  _43
REMARK   18  A    between atoms: _45  and  _47
REMARK   19  A    between atoms: _47  and  _48
REMARK   20  A    between atoms: _50  and  _52
REMARK   21  A    between atoms: _52  and  _53
REMARK   22  A    between atoms: _52  and  _55
REMARK   23  A    between atoms: _57  and  _59
REMARK   24  A    between atoms: _59  and  _60
REMARK   25  A    between atoms: _59  and  _62
REMARK   26  A    between atoms: _65  and  _67
REMARK   27  A    between atoms: _67  and  _68
REMARK   28  A    between atoms: _67  and  _70
REMARK   29  A    between atoms: _70  and  _71
REMARK   30  A    between atoms: _76  and  _77
REMARK   31  A    between atoms: _79  and  _81
REMARK   32  A    between atoms: _81  and  _82
REMARK   33  A    between atoms: _81  and  _84
REMARK   34  A    between atoms: _84  and  _85
REMARK   35  A    between atoms: _90  and  _92
REMARK   36  A    between atoms: _92  and  _93
REMARK   37  A    between atoms: _95  and  _97
REMARK   38  A    between atoms: _97  and  _98
REMARK   39  A    between atoms: _97  and  _100
REMARK   40  A    between atoms: _100  and  _101
REMARK   41  A    between atoms: _106  and  _108
REMARK   42  A    between atoms: _108  and  _109
REMARK   43  A    between atoms: _108  and  _111
REMARK   44  A    between atoms: _113  and  _115
REMARK   45  A    between atoms: _115  and  _116
REMARK   46  A    between atoms: _119  and  _121
REMARK   47  A    between atoms: _121  and  _122
REMARK   48  A    between atoms: _121  and  _124
REMARK   49  A    between atoms: _127  and  _129
REMARK   50  A    between atoms: _129  and  _130
REMARK   51  A    between atoms: _129  and  _132
REMARK   52  A    between atoms: _132  and  _133
REMARK   53  A    between atoms: _133  and  _134
REMARK   54  A    between atoms: _134  and  _135
REMARK   55  A    between atoms: _135  and  _136
REMARK   56  A    between atoms: _140  and  _142
REMARK   57  A    between atoms: _142  and  _143
REMARK   58  A    between atoms: _142  and  _145
REMARK   59  A    between atoms: _145  and  _146
REMARK   60  A    between atoms: _148  and  _150
REMARK   61  A    between atoms: _150  and  _151
REMARK   62  A    between atoms: _150  and  _153
REMARK   63  A    between atoms: _153  and  _154
REMARK   64  A    between atoms: _154  and  _155
REMARK   65  A    between atoms: _157  and  _159
REMARK   66  A    between atoms: _159  and  _160
REMARK   67  A    between atoms: _159  and  _162
REMARK   68  A    between atoms: _162  and  _163
REMARK   69  A    between atoms: _166  and  _168
REMARK   70  A    between atoms: _168  and  _169
REMARK   71  A    between atoms: _168  and  _171
REMARK   72  A    between atoms: _171  and  _172
REMARK   73  A    between atoms: _174  and  _176
REMARK   74  A    between atoms: _176  and  _177
REMARK   75  A    between atoms: _176  and  _179
REMARK   76  A    between atoms: _182  and  _184
REMARK   77  A    between atoms: _184  and  _185
REMARK   78  A    between atoms: _184  and  _187
REMARK   79  A    between atoms: _190  and  _192
REMARK   80  A    between atoms: _192  and  _193
REMARK   81  A    between atoms: _192  and  _195
REMARK   82  A    between atoms: _195  and  _196
REMARK   83  A    between atoms: _200  and  _201
REMARK   84  A    between atoms: _206  and  _208
REMARK   85  A    between atoms: _208  and  _209
REMARK   86  A    between atoms: _208  and  _211
REMARK   87  A    between atoms: _211  and  _212
REMARK   88  A    between atoms: _217  and  _218
REMARK   89  A    between atoms: _220  and  _222
REMARK   90  A    between atoms: _222  and  _223
REMARK   91  A    between atoms: _222  and  _225
REMARK   92  A    between atoms: _225  and  _226
REMARK   93  A    between atoms: _226  and  _227
REMARK   94  A    between atoms: _229  and  _231
REMARK   95  A    between atoms: _231  and  _232
REMARK   96  A    between atoms: _231  and  _234
REMARK   97  A    between atoms: _234  and  _235
REMARK   98  A    between atoms: _235  and  _236
REMARK   99  A    between atoms: _236  and  _237
REMARK  100  A    between atoms: _237  and  _238
REMARK  101  A    between atoms: _242  and  _244
REMARK  102  A    between atoms: _244  and  _245
REMARK  103  A    between atoms: _244  and  _247
REMARK  104  A    between atoms: _247  and  _248
REMARK  105  A    between atoms: _253  and  _255
REMARK  106  A    between atoms: _255  and  _256
REMARK  107  A    between atoms: _258  and  _260
REMARK  108  A    between atoms: _260  and  _261
REMARK  109  A    between atoms: _260  and  _263
REMARK  110  A    between atoms: _263  and  _264
REMARK  111  A    between atoms: _267  and  _269
REMARK  112  A    between atoms: _269  and  _270
REMARK  113  A    between atoms: _269  and  _272
REMARK  114  A    between atoms: _272  and  _273
REMARK  115  A    between atoms: _276  and  _278
REMARK  116  A    between atoms: _278  and  _279
REMARK  117  A    between atoms: _278  and  _281
REMARK  118  A    between atoms: _281  and  _282
REMARK  119  A    between atoms: _282  and  _283
REMARK  120  A    between atoms: _283  and  _284
REMARK  121  A    between atoms: _293  and  _295
REMARK  122  A    between atoms: _295  and  _296
REMARK  123  A    between atoms: _295  and  _298
REMARK  124  A    between atoms: _298  and  _299
REMARK  125  A    between atoms: _304  and  _306
REMARK  126  A    between atoms: _306  and  _307
REMARK  127  A    between atoms: _306  and  _309
REMARK  128  A    between atoms: _309  and  _310
REMARK  129  A    between atoms: _310  and  _311
REMARK  130  A    between atoms: _311  and  _312
REMARK  131  A    between atoms: _321  and  _323
REMARK  132  A    between atoms: _323  and  _324
REMARK  133  A    between atoms: _323  and  _326
REMARK  134  A    between atoms: _326  and  _327
REMARK  135  A    between atoms: _332  and  _334
REMARK  136  A    between atoms: _334  and  _335
REMARK  137  A    between atoms: _334  and  _337
REMARK  138  A    between atoms: _337  and  _338
REMARK  139  A    between atoms: _341  and  _343
REMARK  140  A    between atoms: _343  and  _344
REMARK  141  A    between atoms: _347  and  _349
REMARK  142  A    between atoms: _349  and  _350
REMARK  143  A    between atoms: _353  and  _355
REMARK  144  A    between atoms: _355  and  _356
REMARK  145  A    between atoms: _355  and  _358
REMARK  146  A    between atoms: _358  and  _359
REMARK  147  A    between atoms: _359  and  _360
REMARK  148  A    between atoms: _360  and  _361
REMARK  149  A    between atoms: _370  and  _372
REMARK  150  A    between atoms: _372  and  _373
REMARK  151  A    between atoms: _372  and  _375
REMARK  152  A    between atoms: _375  and  _376
REMARK  153  A    between atoms: _381  and  _383
REMARK  154  A    between atoms: _383  and  _384
REMARK  155  A    between atoms: _383  and  _386
REMARK  156  A    between atoms: _388  and  _390
REMARK  157  A    between atoms: _390  and  _391
REMARK  158  A    between atoms: _390  and  _393
REMARK  159  A    between atoms: _393  and  _394
REMARK  160  A    between atoms: _394  and  _395
REMARK  161  A    between atoms: _397  and  _399
REMARK  162  A    between atoms: _399  and  _400
REMARK  163  A    between atoms: _399  and  _402
REMARK  164  A    between atoms: _402  and  _403
REMARK  165  A    between atoms: _406  and  _408
REMARK  166  A    between atoms: _408  and  _409
REMARK  167  A    between atoms: _408  and  _411
REMARK  168  A    between atoms: _411  and  _412
REMARK  169  A    between atoms: _415  and  _417
REMARK  170  A    between atoms: _417  and  _418
REMARK  171  A    between atoms: _417  and  _420
REMARK  172  A    between atoms: _420  and  _421
REMARK  173  A    between atoms: _421  and  _422
REMARK  174  A    between atoms: _422  and  _423
REMARK  175  A    between atoms: _423  and  _424
REMARK  176  A    between atoms: _428  and  _430
REMARK  177  A    between atoms: _430  and  _431
REMARK  178  A    between atoms: _430  and  _433
REMARK  179  A    between atoms: _436  and  _438
REMARK  180  A    between atoms: _438  and  _439
REMARK  181  A    between atoms: _442  and  _444
REMARK  182  A    between atoms: _444  and  _445
REMARK  183  A    between atoms: _444  and  _447
REMARK  184  A    between atoms: _447  and  _448
REMARK  185  A    between atoms: _451  and  _453
REMARK  186  A    between atoms: _453  and  _454
REMARK  187  A    between atoms: _453  and  _456
REMARK  188  A    between atoms: _456  and  _457
REMARK  189  A    between atoms: _463  and  _465
REMARK  190  A    between atoms: _465  and  _466
REMARK  191  A    between atoms: _465  and  _468
REMARK  192  A    between atoms: _468  and  _469
REMARK  193  A    between atoms: _472  and  _474
REMARK  194  A    between atoms: _474  and  _475
REMARK  195  A    between atoms: _478  and  _480
REMARK  196  A    between atoms: _480  and  _481
REMARK  197  A    between atoms: _480  and  _483
REMARK  198  A    between atoms: _483  and  _484
REMARK  199  A    between atoms: _484  and  _485
REMARK  200  A    between atoms: _485  and  _486
REMARK  201  A    between atoms: _495  and  _497
REMARK  202  A    between atoms: _497  and  _498
REMARK  203  A    between atoms: _497  and  _500
REMARK  204  A    between atoms: _500  and  _501
REMARK  205  A    between atoms: _504  and  _506
REMARK  206  A    between atoms: _506  and  _507
REMARK  207  A    between atoms: _506  and  _509
REMARK  208  A    between atoms: _509  and  _510
REMARK  209  A    between atoms: _510  and  _511
REMARK  210  A    between atoms: _513  and  _515
REMARK  211  A    between atoms: _515  and  _516
REMARK  212  A    between atoms: _515  and  _518
REMARK  213  A    between atoms: _518  and  _519
REMARK  214  A    between atoms: _524  and  _525
REMARK  215  A    between atoms: _527  and  _529
REMARK  216  A    between atoms: _529  and  _530
REMARK  217  A    between atoms: _529  and  _532
REMARK  218  A    between atoms: _532  and  _533
REMARK  219  A    between atoms: _536  and  _538
REMARK  220  A    between atoms: _538  and  _539
REMARK  221  A    between atoms: _538  and  _541
REMARK  222  A    between atoms: _541  and  _542
REMARK  223  A    between atoms: _542  and  _543
REMARK  224  A    between atoms: _543  and  _544
REMARK  225  A    between atoms: _544  and  _545
REMARK  226  A    between atoms: _549  and  _551
REMARK  227  A    between atoms: _551  and  _552
REMARK  228  A    between atoms: _551  and  _554
REMARK  229  A    between atoms: _554  and  _555
REMARK  230  A    between atoms: _560  and  _561
REMARK  231  A    between atoms: _563  and  _565
REMARK  232  A    between atoms: _565  and  _566
REMARK  233  A    between atoms: _565  and  _568
REMARK  234  A    between atoms: _568  and  _569
REMARK  235  A    between atoms: _574  and  _575
REMARK                            x       y       z     vdW  Elec       q    Type
REMARK                         _______ _______ _______ _____ _____    ______ ____
ROOT
ATOM      1  O   HOH     1      22.345  13.894  -2.368  0.00  0.00    +0.000 OA
ENDROOT
TORSDOF 0
REMARK  Name = ../refined-set-2016/3zze/3zze_pocket.pdb
REMARK  235 active torsions:
REMARK  status: ('A' for Active; 'I' for Inactive)
REMARK    1  A    between atoms: _1  and  _3
REMARK    2  A    between atoms: _3  and  _4
REMARK    3  A    between atoms: _3  and  _6
REMARK    4  A    between atoms: _9  and  _11
REMARK    5  A    between atoms: _11  and  _12
REMARK    6  A    between atoms: _11  and  _14
REMARK    7  A    between atoms: _14  and  _15
REMARK    8  A    between atoms: _18  and  _20
REMARK    9  A    between atoms: _20  and  _21
REMARK   10  A    between atoms: _23  and  _25
REMARK   11  A    between atoms: _25  and  _26
REMARK   12  A    between atoms: _25  and  _28
REMARK   13  A    between atoms: _28  and  _29
REMARK   14  A    between atoms: _29  and  _30
REMARK   15  A    between atoms: _30  and  _31
REMARK   16  A    between atoms: _40  and  _42
REMARK   17  A    between atoms: _42  and  _43
REMARK   18  A    between atoms: _45  and  _47
REMARK   19  A    between atoms: _47  and  _48
REMARK   20  A    between atoms: _50  and  _52
REMARK   21  A    between atoms: _52  and  _53
REMARK   22  A    between atoms: _52  and  _55
REMARK   23  A    between atoms: _57  and  _59
REMARK   24  A    between atoms: _59  and  _60
REMARK   25  A    between atoms: _59  and  _62
REMARK   26  A    between atoms: _65  and  _67
REMARK   27  A    between atoms: _67  and  _68
REMARK   28  A    between atoms: _67  and  _70
REMARK   29  A    between atoms: _70  and  _71
REMARK   30  A    between atoms: _76  and  _77
REMARK   31  A    between atoms: _79  and  _81
REMARK   32  A    between atoms: _81  and  _82
REMARK   33  A    between atoms: _81  and  _84
REMARK   34  A    between atoms: _84  and  _85
REMARK   35  A    between atoms: _90  and  _92
REMARK   36  A    between atoms: _92  and  _93
REMARK   37  A    between atoms: _95  and  _97
REMARK   38  A    between atoms: _97  and  _98
REMARK   39  A    between atoms: _97  and  _100
REMARK   40  A    between atoms: _100  and  _101
REMARK   41  A    between atoms: _106  and  _108
REMARK   42  A    between atoms: _108  and  _109
REMARK   43  A    between atoms: _108  and  _111
REMARK   44  A    between atoms: _113  and  _115
REMARK   45  A    between atoms: _115  and  _116
REMARK   46  A    between atoms: _119  and  _121
REMARK   47  A    between atoms: _121  and  _122
REMARK   48  A    between atoms: _121  and  _124
REMARK   49  A    between atoms: _127  and  _129
REMARK   50  A    between atoms: _129  and  _130
REMARK   51  A    between atoms: _129  and  _132
REMARK   52  A    between atoms: _132  and  _133
REMARK   53  A    between atoms: _133  and  _134
REMARK   54  A    between atoms: _134  and  _135
REMARK   55  A    between atoms: _135  and  _136
REMARK   56  A    between atoms: _140  and  _142
REMARK   57  A    between atoms: _142  and  _143
REMARK   58  A    between atoms: _142  and  _145
REMARK   59  A    between atoms: _145  and  _146
REMARK   60  A    between atoms: _148  and  _150
REMARK   61  A    between atoms: _150  and  _151
REMARK   62  A    between atoms: _150  and  _153
REMARK   63  A    between atoms: _153  and  _154
REMARK   64  A    between atoms: _154  and  _155
REMARK   65  A    between atoms: _157  and  _159
REMARK   66  A    between atoms: _159  and  _160
REMARK   67  A    between atoms: _159  and  _162
REMARK   68  A    between atoms: _162  and  _163
REMARK   69  A    between atoms: _166  and  _168
REMARK   70  A    between atoms: _168  and  _169
REMARK   71  A    between atoms: _168  and  _171
REMARK   72  A    between atoms: _171  and  _172
REMARK   73  A    between atoms: _174  and  _176
REMARK   74  A    between atoms: _176  and  _177
REMARK   75  A    between atoms: _176  and  _179
REMARK   76  A    between atoms: _182  and  _184
REMARK   77  A    between atoms: _184  and  _185
REMARK   78  A    between atoms: _184  and  _187
REMARK   79  A    between atoms: _190  and  _192
REMARK   80  A    between atoms: _192  and  _193
REMARK   81  A    between atoms: _192  and  _195
REMARK   82  A    between atoms: _195  and  _196
REMARK   83  A    between atoms: _200  and  _201
REMARK   84  A    between atoms: _206  and  _208
REMARK   85  A    between atoms: _208  and  _209
REMARK   86  A    between atoms: _208  and  _211
REMARK   87  A    between atoms: _211  and  _212
REMARK   88  A    between atoms: _217  and  _218
REMARK   89  A    between atoms: _220  and  _222
REMARK   90  A    between atoms: _222  and  _223
REMARK   91  A    between atoms: _222  and  _225
REMARK   92  A    between atoms: _225  and  _226
REMARK   93  A    between atoms: _226  and  _227
REMARK   94  A    between atoms: _229  and  _231
REMARK   95  A    between atoms: _231  and  _232
REMARK   96  A    between atoms: _231  and  _234
REMARK   97  A    between atoms: _234  and  _235
REMARK   98  A    between atoms: _235  and  _236
REMARK   99  A    between atoms: _236  and  _237
REMARK  100  A    between atoms: _237  and  _238
REMARK  101  A    between atoms: _242  and  _244
REMARK  102  A    between atoms: _244  and  _245
REMARK  103  A    between atoms: _244  and  _247
REMARK  104  A    between atoms: _247  and  _248
REMARK  105  A    between atoms: _253  and  _255
REMARK  106  A    between atoms: _255  and  _256
REMARK  107  A    between atoms: _258  and  _260
REMARK  108  A    between atoms: _260  and  _261
REMARK  109  A    between atoms: _260  and  _263
REMARK  110  A    between atoms: _263  and  _264
REMARK  111  A    between atoms: _267  and  _269
REMARK  112  A    between atoms: _269  and  _270
REMARK  113  A    between atoms: _269  and  _272
REMARK  114  A    between atoms: _272  and  _273
REMARK  115  A    between atoms: _276  and  _278
REMARK  116  A    between atoms: _278  and  _279
REMARK  117  A    between atoms: _278  and  _281
REMARK  118  A    between atoms: _281  and  _282
REMARK  119  A    between atoms: _282  and  _283
REMARK  120  A    between atoms: _283  and  _284
REMARK  121  A    between atoms: _293  and  _295
REMARK  122  A    between atoms: _295  and  _296
REMARK  123  A    between atoms: _295  and  _298
REMARK  124  A    between atoms: _298  and  _299
REMARK  125  A    between atoms: _304  and  _306
REMARK  126  A    between atoms: _306  and  _307
REMARK  127  A    between atoms: _306  and  _309
REMARK  128  A    between atoms: _309  and  _310
REMARK  129  A    between atoms: _310  and  _311
REMARK  130  A    between atoms: _311  and  _312
REMARK  131  A    between atoms: _321  and  _323
REMARK  132  A    between atoms: _323  and  _324
REMARK  133  A    between atoms: _323  and  _326
REMARK  134  A    between atoms: _326  and  _327
REMARK  135  A    between atoms: _332  and  _334
REMARK  136  A    between atoms: _334  and  _335
REMARK  137  A    between atoms: _334  and  _337
REMARK  138  A    between atoms: _337  and  _338
REMARK  139  A    between atoms: _341  and  _343
REMARK  140  A    between atoms: _343  and  _344
REMARK  141  A    between atoms: _347  and  _349
REMARK  142  A    between atoms: _349  and  _350
REMARK  143  A    between atoms: _353  and  _355
REMARK  144  A    between atoms: _355  and  _356
REMARK  145  A    between atoms: _355  and  _358
REMARK  146  A    between atoms: _358  and  _359
REMARK  147  A    between atoms: _359  and  _360
REMARK  148  A    between atoms: _360  and  _361
REMARK  149  A    between atoms: _370  and  _372
REMARK  150  A    between atoms: _372  and  _373
REMARK  151  A    between atoms: _372  and  _375
REMARK  152  A    between atoms: _375  and  _376
REMARK  153  A    between atoms: _381  and  _383
REMARK  154  A    between atoms: _383  and  _384
REMARK  155  A    between atoms: _383  and  _386
REMARK  156  A    between atoms: _388  and  _390
REMARK  157  A    between atoms: _390  and  _391
REMARK  158  A    between atoms: _390  and  _393
REMARK  159  A    between atoms: _393  and  _394
REMARK  160  A    between atoms: _394  and  _395
REMARK  161  A    between atoms: _397  and  _399
REMARK  162  A    between atoms: _399  and  _400
REMARK  163  A    between atoms: _399  and  _402
REMARK  164  A    between atoms: _402  and  _403
REMARK  165  A    between atoms: _406  and  _408
REMARK  166  A    between atoms: _408  and  _409
REMARK  167  A    between atoms: _408  and  _411
REMARK  168  A    between atoms: _411  and  _412
REMARK  169  A    between atoms: _415  and  _417
REMARK  170  A    between atoms: _417  and  _418
REMARK  171  A    between atoms: _417  and  _420
REMARK  172  A    between atoms: _420  and  _421
REMARK  173  A    between atoms: _421  and  _422
REMARK  174  A    between atoms: _422  and  _423
REMARK  175  A    between atoms: _423  and  _424
REMARK  176  A    between atoms: _428  and  _430
REMARK  177  A    between atoms: _430  and  _431
REMARK  178  A    between atoms: _430  and  _433
REMARK  179  A    between atoms: _436  and  _438
REMARK  180  A    between atoms: _438  and  _439
REMARK  181  A    between atoms: _442  and  _444
REMARK  182  A    between atoms: _444  and  _445
REMARK  183  A    between atoms: _444  and  _447
REMARK  184  A    between atoms: _447  and  _448
REMARK  185  A    between atoms: _451  and  _453
REMARK  186  A    between atoms: _453  and  _454
REMARK  187  A    between atoms: _453  and  _456
REMARK  188  A    between atoms: _456  and  _457
REMARK  189  A    between atoms: _463  and  _465
REMARK  190  A    between atoms: _465  and  _466
REMARK  191  A    between atoms: _465  and  _468
REMARK  192  A    between atoms: _468  and  _469
REMARK  193  A    between atoms: _472  and  _474
REMARK  194  A    between atoms: _474  and  _475
REMARK  195  A    between atoms: _478  and  _480
REMARK  196  A    between atoms: _480  and  _481
REMARK  197  A    between atoms: _480  and  _483
REMARK  198  A    between atoms: _483  and  _484
REMARK  199  A    between atoms: _484  and  _485
REMARK  200  A    between atoms: _485  and  _486
REMARK  201  A    between atoms: _495  and  _497
REMARK  202  A    between atoms: _497  and  _498
REMARK  203  A    between atoms: _497  and  _500
REMARK  204  A    between atoms: _500  and  _501
REMARK  205  A    between atoms: _504  and  _506
REMARK  206  A    between atoms: _506  and  _507
REMARK  207  A    between atoms: _506  and  _509
REMARK  208  A    between atoms: _509  and  _510
REMARK  209  A    between atoms: _510  and  _511
REMARK  210  A    between atoms: _513  and  _515
REMARK  211  A    between atoms: _515  and  _516
REMARK  212  A    between atoms: _515  and  _518
REMARK  213  A    between atoms: _518  and  _519
REMARK  214  A    between atoms: _524  and  _525
REMARK  215  A    between atoms: _527  and  _529
REMARK  216  A    between atoms: _529  and  _530
REMARK  217  A    between atoms: _529  and  _532
REMARK  218  A    between atoms: _532  and  _533
REMARK  219  A    between atoms: _536  and  _538
REMARK  220  A    between atoms: _538  and  _539
REMARK  221  A    between atoms: _538  and  _541
REMARK  222  A    between atoms: _541  and  _542
REMARK  223  A    between atoms: _542  and  _543
REMARK  224  A    between atoms: _543  and  _544
REMARK  225  A    between atoms: _544  and  _545
REMARK  226  A    between atoms: _549  and  _551
REMARK  227  A    between atoms: _551  and  _552
REMARK  228  A    between atoms: _551  and  _554
REMARK  229  A    between atoms: _554  and  _555
REMARK  230  A    between atoms: _560  and  _561
REMARK  231  A    between atoms: _563  and  _565
REMARK  232  A    between atoms: _565  and  _566
REMARK  233  A    between atoms: _565  and  _568
REMARK  234  A    between atoms: _568  and  _569
REMARK  235  A    between atoms: _574  and  _575
REMARK                            x       y       z     vdW  Elec       q    Type
REMARK                         _______ _______ _______ _____ _____    ______ ____
ROOT
ATOM      1  O   HOH     1      24.783  18.139  -4.746  0.00  0.00    +0.000 OA
ENDROOT
TORSDOF 0
REMARK  Name = ../refined-set-2016/3zze/3zze_pocket.pdb
REMARK  235 active torsions:
REMARK  status: ('A' for Active; 'I' for Inactive)
REMARK    1  A    between atoms: _1  and  _3
REMARK    2  A    between atoms: _3  and  _4
REMARK    3  A    between atoms: _3  and  _6
REMARK    4  A    between atoms: _9  and  _11
REMARK    5  A    between atoms: _11  and  _12
REMARK    6  A    between atoms: _11  and  _14
REMARK    7  A    between atoms: _14  and  _15
REMARK    8  A    between atoms: _18  and  _20
REMARK    9  A    between atoms: _20  and  _21
REMARK   10  A    between atoms: _23  and  _25
REMARK   11  A    between atoms: _25  and  _26
REMARK   12  A    between atoms: _25  and  _28
REMARK   13  A    between atoms: _28  and  _29
REMARK   14  A    between atoms: _29  and  _30
REMARK   15  A    between atoms: _30  and  _31
REMARK   16  A    between atoms: _40  and  _42
REMARK   17  A    between atoms: _42  and  _43
REMARK   18  A    between atoms: _45  and  _47
REMARK   19  A    between atoms: _47  and  _48
REMARK   20  A    between atoms: _50  and  _52
REMARK   21  A    between atoms: _52  and  _53
REMARK   22  A    between atoms: _52  and  _55
REMARK   23  A    between atoms: _57  and  _59
REMARK   24  A    between atoms: _59  and  _60
REMARK   25  A    between atoms: _59  and  _62
REMARK   26  A    between atoms: _65  and  _67
REMARK   27  A    between atoms: _67  and  _68
REMARK   28  A    between atoms: _67  and  _70
REMARK   29  A    between atoms: _70  and  _71
REMARK   30  A    between atoms: _76  and  _77
REMARK   31  A    between atoms: _79  and  _81
REMARK   32  A    between atoms: _81  and  _82
REMARK   33  A    between atoms: _81  and  _84
REMARK   34  A    between atoms: _84  and  _85
REMARK   35  A    between atoms: _90  and  _92
REMARK   36  A    between atoms: _92  and  _93
REMARK   37  A    between atoms: _95  and  _97
REMARK   38  A    between atoms: _97  and  _98
REMARK   39  A    between atoms: _97  and  _100
REMARK   40  A    between atoms: _100  and  _101
REMARK   41  A    between atoms: _106  and  _108
REMARK   42  A    between atoms: _108  and  _109
REMARK   43  A    between atoms: _108  and  _111
REMARK   44  A    between atoms: _113  and  _115
REMARK   45  A    between atoms: _115  and  _116
REMARK   46  A    between atoms: _119  and  _121
REMARK   47  A    between atoms: _121  and  _122
REMARK   48  A    between atoms: _121  and  _124
REMARK   49  A    between atoms: _127  and  _129
REMARK   50  A    between atoms: _129  and  _130
REMARK   51  A    between atoms: _129  and  _132
REMARK   52  A    between atoms: _132  and  _133
REMARK   53  A    between atoms: _133  and  _134
REMARK   54  A    between atoms: _134  and  _135
REMARK   55  A    between atoms: _135  and  _136
REMARK   56  A    between atoms: _140  and  _142
REMARK   57  A    between atoms: _142  and  _143
REMARK   58  A    between atoms: _142  and  _145
REMARK   59  A    between atoms: _145  and  _146
REMARK   60  A    between atoms: _148  and  _150
REMARK   61  A    between atoms: _150  and  _151
REMARK   62  A    between atoms: _150  and  _153
REMARK   63  A    between atoms: _153  and  _154
REMARK   64  A    between atoms: _154  and  _155
REMARK   65  A    between atoms: _157  and  _159
REMARK   66  A    between atoms: _159  and  _160
REMARK   67  A    between atoms: _159  and  _162
REMARK   68  A    between atoms: _162  and  _163
REMARK   69  A    between atoms: _166  and  _168
REMARK   70  A    between atoms: _168  and  _169
REMARK   71  A    between atoms: _168  and  _171
REMARK   72  A    between atoms: _171  and  _172
REMARK   73  A    between atoms: _174  and  _176
REMARK   74  A    between atoms: _176  and  _177
REMARK   75  A    between atoms: _176  and  _179
REMARK   76  A    between atoms: _182  and  _184
REMARK   77  A    between atoms: _184  and  _185
REMARK   78  A    between atoms: _184  and  _187
REMARK   79  A    between atoms: _190  and  _192
REMARK   80  A    between atoms: _192  and  _193
REMARK   81  A    between atoms: _192  and  _195
REMARK   82  A    between atoms: _195  and  _196
REMARK   83  A    between atoms: _200  and  _201
REMARK   84  A    between atoms: _206  and  _208
REMARK   85  A    between atoms: _208  and  _209
REMARK   86  A    between atoms: _208  and  _211
REMARK   87  A    between atoms: _211  and  _212
REMARK   88  A    between atoms: _217  and  _218
REMARK   89  A    between atoms: _220  and  _222
REMARK   90  A    between atoms: _222  and  _223
REMARK   91  A    between atoms: _222  and  _225
REMARK   92  A    between atoms: _225  and  _226
REMARK   93  A    between atoms: _226  and  _227
REMARK   94  A    between atoms: _229  and  _231
REMARK   95  A    between atoms: _231  and  _232
REMARK   96  A    between atoms: _231  and  _234
REMARK   97  A    between atoms: _234  and  _235
REMARK   98  A    between atoms: _235  and  _236
REMARK   99  A    between atoms: _236  and  _237
REMARK  100  A    between atoms: _237  and  _238
REMARK  101  A    between atoms: _242  and  _244
REMARK  102  A    between atoms: _244  and  _245
REMARK  103  A    between atoms: _244  and  _247
REMARK  104  A    between atoms: _247  and  _248
REMARK  105  A    between atoms: _253  and  _255
REMARK  106  A    between atoms: _255  and  _256
REMARK  107  A    between atoms: _258  and  _260
REMARK  108  A    between atoms: _260  and  _261
REMARK  109  A    between atoms: _260  and  _263
REMARK  110  A    between atoms: _263  and  _264
REMARK  111  A    between atoms: _267  and  _269
REMARK  112  A    between atoms: _269  and  _270
REMARK  113  A    between atoms: _269  and  _272
REMARK  114  A    between atoms: _272  and  _273
REMARK  115  A    between atoms: _276  and  _278
REMARK  116  A    between atoms: _278  and  _279
REMARK  117  A    between atoms: _278  and  _281
REMARK  118  A    between atoms: _281  and  _282
REMARK  119  A    between atoms: _282  and  _283
REMARK  120  A    between atoms: _283  and  _284
REMARK  121  A    between atoms: _293  and  _295
REMARK  122  A    between atoms: _295  and  _296
REMARK  123  A    between atoms: _295  and  _298
REMARK  124  A    between atoms: _298  and  _299
REMARK  125  A    between atoms: _304  and  _306
REMARK  126  A    between atoms: _306  and  _307
REMARK  127  A    between atoms: _306  and  _309
REMARK  128  A    between atoms: _309  and  _310
REMARK  129  A    between atoms: _310  and  _311
REMARK  130  A    between atoms: _311  and  _312
REMARK  131  A    between atoms: _321  and  _323
REMARK  132  A    between atoms: _323  and  _324
REMARK  133  A    between atoms: _323  and  _326
REMARK  134  A    between atoms: _326  and  _327
REMARK  135  A    between atoms: _332  and  _334
REMARK  136  A    between atoms: _334  and  _335
REMARK  137  A    between atoms: _334  and  _337
REMARK  138  A    between atoms: _337  and  _338
REMARK  139  A    between atoms: _341  and  _343
REMARK  140  A    between atoms: _343  and  _344
REMARK  141  A    between atoms: _347  and  _349
REMARK  142  A    between atoms: _349  and  _350
REMARK  143  A    between atoms: _353  and  _355
REMARK  144  A    between atoms: _355  and  _356
REMARK  145  A    between atoms: _355  and  _358
REMARK  146  A    between atoms: _358  and  _359
REMARK  147  A    between atoms: _359  and  _360
REMARK  148  A    between atoms: _360  and  _361
REMARK  149  A    between atoms: _370  and  _372
REMARK  150  A    between atoms: _372  and  _373
REMARK  151  A    between atoms: _372  and  _375
REMARK  152  A    between atoms: _375  and  _376
REMARK  153  A    between atoms: _381  and  _383
REMARK  154  A    between atoms: _383  and  _384
REMARK  155  A    between atoms: _383  and  _386
REMARK  156  A    between atoms: _388  and  _390
REMARK  157  A    between atoms: _390  and  _391
REMARK  158  A    between atoms: _390  and  _393
REMARK  159  A    between atoms: _393  and  _394
REMARK  160  A    between atoms: _394  and  _395
REMARK  161  A    between atoms: _397  and  _399
REMARK  162  A    between atoms: _399  and  _400
REMARK  163  A    between atoms: _399  and  _402
REMARK  164  A    between atoms: _402  and  _403
REMARK  165  A    between atoms: _406  and  _408
REMARK  166  A    between atoms: _408  and  _409
REMARK  167  A    between atoms: _408  and  _411
REMARK  168  A    between atoms: _411  and  _412
REMARK  169  A    between atoms: _415  and  _417
REMARK  170  A    between atoms: _417  and  _418
REMARK  171  A    between atoms: _417  and  _420
REMARK  172  A    between atoms: _420  and  _421
REMARK  173  A    between atoms: _421  and  _422
REMARK  174  A    between atoms: _422  and  _423
REMARK  175  A    between atoms: _423  and  _424
REMARK  176  A    between atoms: _428  and  _430
REMARK  177  A    between atoms: _430  and  _431
REMARK  178  A    between atoms: _430  and  _433
REMARK  179  A    between atoms: _436  and  _438
REMARK  180  A    between atoms: _438  and  _439
REMARK  181  A    between atoms: _442  and  _444
REMARK  182  A    between atoms: _444  and  _445
REMARK  183  A    between atoms: _444  and  _447
REMARK  184  A    between atoms: _447  and  _448
REMARK  185  A    between atoms: _451  and  _453
REMARK  186  A    between atoms: _453  and  _454
REMARK  187  A    between atoms: _453  and  _456
REMARK  188  A    between atoms: _456  and  _457
REMARK  189  A    between atoms: _463  and  _465
REMARK  190  A    between atoms: _465  and  _466
REMARK  191  A    between atoms: _465  and  _468
REMARK  192  A    between atoms: _468  and  _469
REMARK  193  A    between atoms: _472  and  _474
REMARK  194  A    between atoms: _474  and  _475
REMARK  195  A    between atoms: _478  and  _480
REMARK  196  A    between atoms: _480  and  _481
REMARK  197  A    between atoms: _480  and  _483
REMARK  198  A    between atoms: _483  and  _484
REMARK  199  A    between atoms: _484  and  _485
REMARK  200  A    between atoms: _485  and  _486
REMARK  201  A    between atoms: _495  and  _497
REMARK  202  A    between atoms: _497  and  _498
REMARK  203  A    between atoms: _497  and  _500
REMARK  204  A    between atoms: _500  and  _501
REMARK  205  A    between atoms: _504  and  _506
REMARK  206  A    between atoms: _506  and  _507
REMARK  207  A    between atoms: _506  and  _509
REMARK  208  A    between atoms: _509  and  _510
REMARK  209  A    between atoms: _510  and  _511
REMARK  210  A    between atoms: _513  and  _515
REMARK  211  A    between atoms: _515  and  _516
REMARK  212  A    between atoms: _515  and  _518
REMARK  213  A    between atoms: _518  and  _519
REMARK  214  A    between atoms: _524  and  _525
REMARK  215  A    between atoms: _527  and  _529
REMARK  216  A    between atoms: _529  and  _530
REMARK  217  A    between atoms: _529  and  _532
REMARK  218  A    between atoms: _532  and  _533
REMARK  219  A    between atoms: _536  and  _538
REMARK  220  A    between atoms: _538  and  _539
REMARK  221  A    between atoms: _538  and  _541
REMARK  222  A    between atoms: _541  and  _542
REMARK  223  A    between atoms: _542  and  _543
REMARK  224  A    between atoms: _543  and  _544
REMARK  225  A    between atoms: _544  and  _545
REMARK  226  A    between atoms: _549  and  _551
REMARK  227  A    between atoms: _551  and  _552
REMARK  228  A    between atoms: _551  and  _554
REMARK  229  A    between atoms: _554  and  _555
REMARK  230  A    between atoms: _560  and  _561
REMARK  231  A    between atoms: _563  and  _565
REMARK  232  A    between atoms: _565  and  _566
REMARK  233  A    between atoms: _565  and  _568
REMARK  234  A    between atoms: _568  and  _569
REMARK  235  A    between atoms: _574  and  _575
REMARK                            x       y       z     vdW  Elec       q    Type
REMARK                         _______ _______ _______ _____ _____    ______ ____
ROOT
ATOM      1  O   HOH     1      27.039  11.663  -2.799  0.00  0.00    +0.000 OA
ENDROOT
TORSDOF 0
