REMARK  Name = ../refined-set-2016/2f7p/2f7p_pocket.pdb
REMARK  169 active torsions:
REMARK  status: ('A' for Active; 'I' for Inactive)
REMARK    1  A    between atoms: _1  and  _3
REMARK    2  A    between atoms: _14  and  _17
REMARK    3  A    between atoms: _17  and  _18
REMARK    4  A    between atoms: _25  and  _26
REMARK    5  A    between atoms: _33  and  _34
REMARK    6  A    between atoms: _39  and  _41
REMARK    7  A    between atoms: _41  and  _42
REMARK    8  A    between atoms: _44  and  _46
REMARK    9  A    between atoms: _46  and  _47
REMARK   10  A    between atoms: _46  and  _49
REMARK   11  A    between atoms: _49  and  _50
REMARK   12  A    between atoms: _60  and  _62
REMARK   13  A    between atoms: _62  and  _63
REMARK   14  A    between atoms: _62  and  _65
REMARK   15  A    between atoms: _65  and  _66
REMARK   16  A    between atoms: _69  and  _71
REMARK   17  A    between atoms: _71  and  _72
REMARK   18  A    between atoms: _71  and  _74
REMARK   19  A    between atoms: _74  and  _75
REMARK   20  A    between atoms: _80  and  _81
REMARK   21  A    between atoms: _83  and  _85
REMARK   22  A    between atoms: _85  and  _86
REMARK   23  A    between atoms: _85  and  _88
REMARK   24  A    between atoms: _88  and  _89
REMARK   25  A    between atoms: _89  and  _90
REMARK   26  A    between atoms: _93  and  _95
REMARK   27  A    between atoms: _95  and  _96
REMARK   28  A    between atoms: _95  and  _98
REMARK   29  A    between atoms: _98  and  _99
REMARK   30  A    between atoms: _99  and  _100
REMARK   31  A    between atoms: _102  and  _104
REMARK   32  A    between atoms: _104  and  _105
REMARK   33  A    between atoms: _104  and  _107
REMARK   34  A    between atoms: _107  and  _108
REMARK   35  A    between atoms: _111  and  _113
REMARK   36  A    between atoms: _113  and  _114
REMARK   37  A    between atoms: _113  and  _116
REMARK   38  A    between atoms: _116  and  _117
REMARK   39  A    between atoms: _117  and  _119
REMARK   40  A    between atoms: _119  and  ZN_456
REMARK   41  A    between atoms: _121  and  _122
REMARK   42  A    between atoms: _127  and  _129
REMARK   43  A    between atoms: _129  and  _130
REMARK   44  A    between atoms: _129  and  _132
REMARK   45  A    between atoms: _132  and  _133
REMARK   46  A    between atoms: _139  and  _141
REMARK   47  A    between atoms: _141  and  _142
REMARK   48  A    between atoms: _141  and  _144
REMARK   49  A    between atoms: _144  and  _145
REMARK   50  A    between atoms: _145  and  _146
REMARK   51  A    between atoms: _151  and  _153
REMARK   52  A    between atoms: _153  and  _154
REMARK   53  A    between atoms: _153  and  _156
REMARK   54  A    between atoms: _156  and  _157
REMARK   55  A    between atoms: _157  and  _158
REMARK   56  A    between atoms: _158  and  _159
REMARK   57  A    between atoms: _168  and  _170
REMARK   58  A    between atoms: _170  and  _171
REMARK   59  A    between atoms: _170  and  _173
REMARK   60  A    between atoms: _173  and  _174
REMARK   61  A    between atoms: _179  and  _180
REMARK   62  A    between atoms: _182  and  _184
REMARK   63  A    between atoms: _184  and  _185
REMARK   64  A    between atoms: _184  and  _187
REMARK   65  A    between atoms: _187  and  _188
REMARK   66  A    between atoms: _190  and  _192
REMARK   67  A    between atoms: _192  and  _193
REMARK   68  A    between atoms: _192  and  _195
REMARK   69  A    between atoms: _195  and  _196
REMARK   70  A    between atoms: _201  and  _202
REMARK   71  A    between atoms: _204  and  _206
REMARK   72  A    between atoms: _206  and  _207
REMARK   73  A    between atoms: _206  and  _209
REMARK   74  A    between atoms: _209  and  _210
REMARK   75  A    between atoms: _213  and  _215
REMARK   76  A    between atoms: _215  and  _216
REMARK   77  A    between atoms: _215  and  _218
REMARK   78  A    between atoms: _218  and  _219
REMARK   79  A    between atoms: _222  and  _224
REMARK   80  A    between atoms: _224  and  _225
REMARK   81  A    between atoms: _224  and  _227
REMARK   82  A    between atoms: _227  and  _228
REMARK   83  A    between atoms: _233  and  _235
REMARK   84  A    between atoms: _235  and  _236
REMARK   85  A    between atoms: _235  and  _238
REMARK   86  A    between atoms: _238  and  _239
REMARK   87  A    between atoms: _239  and  _240
REMARK   88  A    between atoms: _240  and  _241
REMARK   89  A    between atoms: _250  and  _252
REMARK   90  A    between atoms: _252  and  _253
REMARK   91  A    between atoms: _255  and  _257
REMARK   92  A    between atoms: _257  and  _258
REMARK   93  A    between atoms: _257  and  _260
REMARK   94  A    between atoms: _260  and  _261
REMARK   95  A    between atoms: _264  and  _266
REMARK   96  A    between atoms: _266  and  _267
REMARK   97  A    between atoms: _266  and  _269
REMARK   98  A    between atoms: _269  and  _270
REMARK   99  A    between atoms: _273  and  _275
REMARK  100  A    between atoms: _275  and  _276
REMARK  101  A    between atoms: _275  and  _278
REMARK  102  A    between atoms: _278  and  _279
REMARK  103  A    between atoms: _285  and  _287
REMARK  104  A    between atoms: _287  and  _288
REMARK  105  A    between atoms: _287  and  _290
REMARK  106  A    between atoms: _290  and  _291
REMARK  107  A    between atoms: _291  and  _292
REMARK  108  A    between atoms: _292  and  _293
REMARK  109  A    between atoms: _302  and  _304
REMARK  110  A    between atoms: _304  and  _305
REMARK  111  A    between atoms: _304  and  _307
REMARK  112  A    between atoms: _307  and  _308
REMARK  113  A    between atoms: _311  and  _313
REMARK  114  A    between atoms: _313  and  _314
REMARK  115  A    between atoms: _313  and  _316
REMARK  116  A    between atoms: _316  and  _317
REMARK  117  A    between atoms: _327  and  _329
REMARK  118  A    between atoms: _329  and  _330
REMARK  119  A    between atoms: _329  and  _332
REMARK  120  A    between atoms: _332  and  _333
REMARK  121  A    between atoms: _338  and  _340
REMARK  122  A    between atoms: _340  and  _341
REMARK  123  A    between atoms: _340  and  _343
REMARK  124  A    between atoms: _343  and  _344
REMARK  125  A    between atoms: _348  and  ZN_456
REMARK  126  A    between atoms: _349  and  _351
REMARK  127  A    between atoms: _351  and  _352
REMARK  128  A    between atoms: _351  and  _354
REMARK  129  A    between atoms: _354  and  _355
REMARK  130  A    between atoms: _358  and  _360
REMARK  131  A    between atoms: _360  and  _361
REMARK  132  A    between atoms: _363  and  _365
REMARK  133  A    between atoms: _365  and  _366
REMARK  134  A    between atoms: _365  and  _368
REMARK  135  A    between atoms: _368  and  _369
REMARK  136  A    between atoms: _372  and  _374
REMARK  137  A    between atoms: _374  and  _375
REMARK  138  A    between atoms: _374  and  _377
REMARK  139  A    between atoms: _377  and  _378
REMARK  140  A    between atoms: _381  and  _383
REMARK  141  A    between atoms: _383  and  _384
REMARK  142  A    between atoms: _387  and  _389
REMARK  143  A    between atoms: _389  and  _390
REMARK  144  A    between atoms: _389  and  _392
REMARK  145  A    between atoms: _392  and  _393
REMARK  146  A    between atoms: _398  and  _399
REMARK  147  A    between atoms: _401  and  _403
REMARK  148  A    between atoms: _403  and  _404
REMARK  149  A    between atoms: _403  and  _406
REMARK  150  A    between atoms: _406  and  _407
REMARK  151  A    between atoms: _410  and  _412
REMARK  152  A    between atoms: _412  and  _413
REMARK  153  A    between atoms: _412  and  _415
REMARK  154  A    between atoms: _415  and  _416
REMARK  155  A    between atoms: _416  and  _417
REMARK  156  A    between atoms: _420  and  _422
REMARK  157  A    between atoms: _422  and  _423
REMARK  158  A    between atoms: _422  and  _425
REMARK  159  A    between atoms: _425  and  _426
REMARK  160  A    between atoms: _426  and  _427
REMARK  161  A    between atoms: _427  and  _428
REMARK  162  A    between atoms: _437  and  _439
REMARK  163  A    between atoms: _439  and  _440
REMARK  164  A    between atoms: _442  and  _444
REMARK  165  A    between atoms: _444  and  _445
REMARK  166  A    between atoms: _444  and  _447
REMARK  167  A    between atoms: _447  and  _448
REMARK  168  A    between atoms: _451  and  _453
REMARK  169  A    between atoms: _453  and  _454
REMARK                            x       y       z     vdW  Elec       q    Type
REMARK                         _______ _______ _______ _____ _____    ______ ____
ROOT
ATOM      1  C   UNK A   1      36.884  61.555  13.344  0.00  0.00    +0.000 C 
ATOM      2  C   UNK A   1      37.544  62.942  13.262  0.00  0.00    +0.000 C 
ATOM      3  O   UNK A   1      37.007  63.917  13.775  0.00  0.00    +0.000 OA
ATOM      4  N   UNK A   2      38.731  62.994  12.643  0.00  0.00    +0.000 N 
ATOM      5  C   UNK A   2      39.515  64.237  12.599  0.00  0.00    +0.000 C 
ATOM      6  C   UNK A   2      39.725  64.731  11.176  0.00  0.00    +0.000 C 
ATOM      7  N   UNK A   3      38.941  65.690  10.775  0.00  0.00    +0.000 N 
ATOM      8  H   UNK A   3      38.239  66.076  11.438  0.00  0.00    +0.000 HD
ATOM      9  C   UNK A   3      39.016  66.239   9.428  0.00  0.00    +0.000 C 
ATOM     10  C   UNK A   3      37.811  67.160   9.185  0.00  0.00    +0.000 C 
ATOM     11  C   UNK A   3      36.540  66.397   9.222  0.00  0.00    +0.000 C 
ATOM     12  O   UNK A   3      35.768  66.653  10.173  0.00  0.00    +0.000 OA
ATOM     13  O   UNK A   3      36.344  65.537   8.358  0.00  0.00    +0.000 OA
ATOM     14 ZN   UNK A   1      34.586  64.309   7.911  0.00  0.00    +0.000 Zn
ATOM     15  N   UNK A   1      35.208  62.835   9.293  0.00  0.00    +0.000 N 
ATOM     16  C   UNK A   1      35.009  63.003  10.642  0.00  0.00    +0.000 A 
ATOM     17  C   UNK A   1      35.493  61.915  11.266  0.00  0.00    +0.000 A 
ATOM     18  N   UNK A   1      35.978  61.079  10.273  0.00  0.00    +0.000 NA
ATOM     19  C   UNK A   1      35.790  61.669   9.094  0.00  0.00    +0.000 A 
ATOM     20  O   UNK A   2      40.629  64.251  10.474  0.00  0.00    +0.000 OA
ATOM     21  H   UNK A   2      39.105  62.139  12.185  0.00  0.00    +0.000 HD
ATOM     22  C   UNK A   1      35.496  61.517  12.711  0.00  0.00    +0.000 C 
ENDROOT
BRANCH   9  23
ATOM     23  C   UNK A   3      40.282  67.082   9.209  0.00  0.00    +0.000 C 
ATOM     24  O   UNK A   3      40.493  68.041   9.967  0.00  0.00    +0.000 OA
ATOM     25  N   GLY A   4      41.109  66.772   8.207  0.00  0.00    +0.000 N 
ATOM     26  CA  GLY A   4      42.332  67.570   7.904  0.00  0.00    +0.000 C 
ATOM     27  CB  GLY A   4      43.162  66.618   7.029  0.00  0.00    +0.000 C 
ATOM     28  CG  GLY A   4      42.643  65.221   7.366  0.00  0.00    +0.000 C 
ATOM     29  CD  GLY A   4      41.128  65.472   7.500  0.00  0.00    +0.000 C 
BRANCH  26  30
ATOM     30  C   GLY A   4      41.859  68.832   7.115  0.00  0.00    +0.000 C 
ATOM     31  N   GLY A   5      41.087  69.682   7.799  0.00  0.00    +0.000 N 
ATOM     32  H   GLY A   5      40.901  69.478   8.802  0.00  0.00    +0.000 HD
ATOM     33  O   GLY A   4      42.189  69.007   5.914  0.00  0.00    +0.000 OA
BRANCH  31  34
ATOM     34  CA  GLY A   5      40.487  70.886   7.216  0.00  0.00    +0.000 C 
BRANCH  34  35
ATOM     35  C   GLY A   5      38.996  70.682   6.993  0.00  0.00    +0.000 C 
ATOM     36  N   TRP A   6      38.200  71.662   7.433  0.00  0.00    +0.000 N 
ATOM     37  H   TRP A   6      38.623  72.441   7.977  0.00  0.00    +0.000 HD
ATOM     38  O   GLY A   5      38.577  69.618   6.472  0.00  0.00    +0.000 OA
BRANCH  36  39
ATOM     39  CA  TRP A   6      36.762  71.684   7.181  0.00  0.00    +0.000 C 
BRANCH  39  40
ATOM     40  C   TRP A   6      36.269  73.077   7.617  0.00  0.00    +0.000 C 
ATOM     41  N   ILE A   7      35.936  73.245   8.902  0.00  0.00    +0.000 N 
ATOM     42  H   ILE A   7      35.971  72.422   9.537  0.00  0.00    +0.000 HD
ATOM     43  O   TRP A   6      36.227  73.998   6.813  0.00  0.00    +0.000 OA
BRANCH  41  44
ATOM     44  CA  ILE A   7      35.521  74.548   9.456  0.00  0.00    +0.000 C 
BRANCH  44  45
ATOM     45  C   ILE A   7      36.757  75.303   9.904  0.00  0.00    +0.000 C 
ATOM     46  O   ILE A   7      36.716  76.527  10.021  0.00  0.00    +0.000 OA
ENDBRANCH  44  45
BRANCH  44  47
ATOM     47  CB  ILE A   7      34.592  74.384  10.732  0.00  0.00    +0.000 C 
ATOM     48  CG2 ILE A   7      34.312  75.734  11.408  0.00  0.00    +0.000 C 
BRANCH  47  49
ATOM     49  CG1 ILE A   7      33.326  73.665  10.402  0.00  0.00    +0.000 C 
ATOM     50  CD1 ILE A   7      32.849  74.109   9.161  0.00  0.00    +0.000 C 
ENDBRANCH  47  49
ENDBRANCH  44  47
ENDBRANCH  41  44
ENDBRANCH  39  40
BRANCH  39  51
ATOM     51  CB  TRP A   6      35.954  70.555   7.852  0.00  0.00    +0.000 C 
BRANCH  51  52
ATOM     52  CG  TRP A   6      34.476  70.717   7.522  0.00  0.00    +0.000 A 
ATOM     53  CD2 TRP A   6      33.368  70.530   8.431  0.00  0.00    +0.000 A 
ATOM     54  CE3 TRP A   6      33.274  70.167   9.794  0.00  0.00    +0.000 A 
ATOM     55  CZ3 TRP A   6      32.003  70.063  10.347  0.00  0.00    +0.000 A 
ATOM     56  CH2 TRP A   6      30.852  70.319   9.599  0.00  0.00    +0.000 A 
ATOM     57  CZ2 TRP A   6      30.912  70.663   8.287  0.00  0.00    +0.000 A 
ATOM     58  CE2 TRP A   6      32.194  70.760   7.705  0.00  0.00    +0.000 A 
ATOM     59  NE1 TRP A   6      32.555  71.074   6.420  0.00  0.00    +0.000 N 
ATOM     60  HE1 TRP A   6      31.900  71.303   5.645  0.00  0.00    +0.000 HD
ATOM     61  CD1 TRP A   6      33.944  71.036   6.325  0.00  0.00    +0.000 A 
ENDBRANCH  51  52
ENDBRANCH  39  51
ENDBRANCH  36  39
ENDBRANCH  34  35
ENDBRANCH  31  34
ENDBRANCH  26  30
ENDBRANCH   9  23
BRANCH  14  62
ATOM     62  N   UNK A   1      35.401  63.665   6.099  0.00  0.00    +0.000 N 
ATOM     63  C   UNK A   1      36.432  62.849   5.915  0.00  0.00    +0.000 A 
ATOM     64  N   UNK A   1      36.619  62.686   4.603  0.00  0.00    +0.000 NA
ATOM     65  C   UNK A   1      35.668  63.412   3.915  0.00  0.00    +0.000 A 
ATOM     66  C   UNK A   1      34.907  64.030   4.861  0.00  0.00    +0.000 A 
BRANCH  65  67
ATOM     67  C   UNK A   1      35.631  63.496   2.403  0.00  0.00    +0.000 C 
BRANCH  67  68
ATOM     68  C   UNK A   1      36.449  64.647   1.792  0.00  0.00    +0.000 C 
BRANCH  68  69
ATOM     69  N   UNK A   1      37.862  64.493   2.138  0.00  0.00    +0.000 N 
ATOM     70  H   UNK A   1      38.115  63.901   2.955  0.00  0.00    +0.000 HD
ATOM     71  C   UNK A   1      38.837  65.081   1.448  0.00  0.00    +0.000 C 
ATOM     72  O   UNK A   1      38.604  65.862   0.501  0.00  0.00    +0.000 OA
BRANCH  71  73
ATOM     73  C   UNK A   1      40.259  64.804   1.931  0.00  0.00    +0.000 C 
BRANCH  73  74
ATOM     74  N   UNK A   1      41.191  64.856   0.818  0.00  0.00    +0.000 NA
ATOM     75  H   UNK A   1      42.061  65.418   0.914  0.00  0.00    +0.000 HD
ENDBRANCH  73  74
BRANCH  73  76
ATOM     76  C   UNK A   1      40.684  65.845   2.978  0.00  0.00    +0.000 C 
BRANCH  76  77
ATOM     77  C   UNK A   1      39.691  66.009   4.069  0.00  0.00    +0.000 A 
ATOM     78  N   UNK A   1      39.082  65.013   4.754  0.00  0.00    +0.000 NA
ATOM     79  C   UNK A   1      38.213  65.598   5.620  0.00  0.00    +0.000 A 
ATOM     80  N   UNK A   1      38.291  66.911   5.502  0.00  0.00    +0.000 NA
ATOM     81  C   UNK A   1      39.195  67.201   4.563  0.00  0.00    +0.000 A 
ENDBRANCH  76  77
ENDBRANCH  73  76
ENDBRANCH  71  73
ENDBRANCH  68  69
BRANCH  68  82
ATOM     82  C   UNK A   1      35.840  66.025   2.106  0.00  0.00    +0.000 C 
ATOM     83  N   UNK A   3      36.677  66.993   2.563  0.00  0.00    +0.000 N 
ATOM     84  H   UNK A   3      37.614  66.733   2.933  0.00  0.00    +0.000 HD
ATOM     85  O   UNK A   1      34.639  66.197   1.867  0.00  0.00    +0.000 OA
BRANCH  83  86
ATOM     86  C   UNK A   3      36.269  68.401   2.538  0.00  0.00    +0.000 C 
BRANCH  86  87
ATOM     87  C   UNK A   3      37.217  69.244   1.699  0.00  0.00    +0.000 C 
ATOM     88  O   UNK A   3      37.106  70.479   1.732  0.00  0.00    +0.000 OA
ATOM     89  N   GLY A   4      38.140  68.606   0.975  0.00  0.00    +0.000 N 
ATOM     90  H   GLY A   4      38.175  67.567   0.997  0.00  0.00    +0.000 HD
BRANCH  89  91
ATOM     91  CA  GLY A   4      39.101  69.335   0.153  0.00  0.00    +0.000 C 
BRANCH  91  92
ATOM     92  C   GLY A   4      38.549  69.423  -1.246  0.00  0.00    +0.000 C 
ATOM     93  O   GLY A   4      37.813  70.357  -1.614  0.00  0.00    +0.000 OA
ENDBRANCH  91  92
ENDBRANCH  89  91
ENDBRANCH  86  87
BRANCH  86  94
ATOM     94  C   UNK A   3      36.116  69.027   3.927  0.00  0.00    +0.000 C 
BRANCH  94  95
ATOM     95  C   UNK A   3      35.104  68.272   4.777  0.00  0.00    +0.000 C 
ATOM     96  O   UNK A   3      35.494  67.635   5.767  0.00  0.00    +0.000 OA
ATOM     97  O   UNK A   3      33.907  68.294   4.404  0.00  0.00    +0.000 OA
ENDBRANCH  94  95
ENDBRANCH  86  94
ENDBRANCH  83  86
ENDBRANCH  68  82
ENDBRANCH  67  68
ENDBRANCH  65  67
ENDBRANCH  14  62
BRANCH   1  98
ATOM     98  N   UNK A   1      36.764  61.166  14.763  0.00  0.00    +0.000 NA
ATOM     99  H   UNK A   1      35.876  61.333  15.279  0.00  0.00    +0.000 HD
ENDBRANCH   1  98
BRANCH   5 100
ATOM    100  C   UNK A   2      40.905  64.013  13.244  0.00  0.00    +0.000 C 
BRANCH 100 101
ATOM    101  C   UNK A   2      40.825  63.934  14.755  0.00  0.00    +0.000 C 
ATOM    102  O   UNK A   2      41.420  64.849  15.432  0.00  0.00    +0.000 OA
ATOM    103  N   UNK A   2      40.207  62.998  15.293  0.00  0.00    +0.000 N 
ATOM    104  H   UNK A   2      40.158  62.935  16.330  0.00  0.00    +0.000 HD
ATOM    105  H   UNK A   2      39.739  62.278  14.706  0.00  0.00    +0.000 HD
ENDBRANCH 100 101
ENDBRANCH   5 100
BRANCH  14 106
ATOM    106  O   UNK A   1      32.671  63.456   7.671  0.00  0.00    +0.000 OA
BRANCH 106 107
ATOM    107  C   UNK A   1      32.156  62.368   7.326  0.00  0.00    +0.000 C 
ATOM    108  O   UNK A   1      30.913  62.239   7.353  0.00  0.00    +0.000 OA
BRANCH 107 109
ATOM    109  C   UNK A   1      33.071  61.186   6.956  0.00  0.00    +0.000 C 
BRANCH 109 110
ATOM    110  C   UNK A   1      32.360  60.067   6.160  0.00  0.00    +0.000 C 
BRANCH 110 111
ATOM    111  C   UNK A   1      32.298  60.461   4.677  0.00  0.00    +0.000 C 
ATOM    112  O   UNK A   1      31.539  61.405   4.382  0.00  0.00    +0.000 OA
ATOM    113  N   UNK A   3      33.022  59.820   3.716  0.00  0.00    +0.000 N 
ATOM    114  C   UNK A   3      34.031  58.752   3.842  0.00  0.00    +0.000 C 
ATOM    115  C   UNK A   3      34.872  58.964   2.547  0.00  0.00    +0.000 C 
ATOM    116  C   UNK A   3      33.774  59.359   1.518  0.00  0.00    +0.000 C 
ATOM    117  C   UNK A   3      32.880  60.297   2.305  0.00  0.00    +0.000 C 
BRANCH 117 118
ATOM    118  C   UNK A   3      31.390  60.213   1.890  0.00  0.00    +0.000 C 
ATOM    119  O   UNK A   3      30.640  59.318   2.322  0.00  0.00    +0.000 OA
ATOM    120  N   GLY A   4      30.971  61.128   1.015  0.00  0.00    +0.000 N 
ATOM    121  H   GLY A   4      31.658  61.722   0.508  0.00  0.00    +0.000 HD
BRANCH 120 122
ATOM    122  CA  GLY A   4      29.515  61.293   0.770  0.00  0.00    +0.000 C 
BRANCH 122 123
ATOM    123  C   GLY A   4      29.080  60.384  -0.402  0.00  0.00    +0.000 C 
ATOM    124  O   GLY A   4      28.826  60.816  -1.534  0.00  0.00    +0.000 OA
ENDBRANCH 122 123
BRANCH 122 125
ATOM    125  CB  GLY A   4      29.228  62.781   0.499  0.00  0.00    +0.000 C 
BRANCH 125 126
ATOM    126  CG  GLY A   4      30.039  63.775   1.347  0.00  0.00    +0.000 A 
ATOM    127  CD2 GLY A   4      30.225  63.555   2.683  0.00  0.00    +0.000 A 
ATOM    128  CE2 GLY A   4      31.042  64.448   3.427  0.00  0.00    +0.000 A 
ATOM    129  CZ  GLY A   4      31.657  65.527   2.792  0.00  0.00    +0.000 A 
ATOM    130  CE1 GLY A   4      31.473  65.745   1.452  0.00  0.00    +0.000 A 
ATOM    131  CD1 GLY A   4      30.654  64.881   0.731  0.00  0.00    +0.000 A 
ENDBRANCH 125 126
ENDBRANCH 122 125
ENDBRANCH 120 122
ENDBRANCH 117 118
ENDBRANCH 110 111
BRANCH 110 132
ATOM    132  N   UNK A   1      32.909  58.775   6.544  0.00  0.00    +0.000 N 
ATOM    133  C   UNK A   1      32.152  57.904   7.215  0.00  0.00    +0.000 C 
ATOM    134  O   UNK A   1      30.956  58.108   7.450  0.00  0.00    +0.000 OA
ATOM    135  H   UNK A   1      33.889  58.531   6.296  0.00  0.00    +0.000 HD
BRANCH 133 136
ATOM    136  C   UNK A   1      32.799  56.610   7.682  0.00  0.00    +0.000 C 
BRANCH 136 137
ATOM    137  N   UNK A   1      34.123  56.292   7.106  0.00  0.00    +0.000 NA
ATOM    138  H   UNK A   1      34.994  56.638   7.558  0.00  0.00    +0.000 HD
ENDBRANCH 136 137
BRANCH 136 139
ATOM    139  C   UNK A   1      32.891  56.656   9.241  0.00  0.00    +0.000 C 
ATOM    140  C   UNK A   1      33.155  55.186   9.769  0.00  0.00    +0.000 C 
BRANCH 139 141
ATOM    141  C   UNK A   1      34.018  57.618   9.742  0.00  0.00    +0.000 C 
ATOM    142  C   UNK A   1      33.945  57.927  11.243  0.00  0.00    +0.000 C 
ENDBRANCH 139 141
ENDBRANCH 136 139
ENDBRANCH 133 136
ENDBRANCH 110 132
ENDBRANCH 109 110
ENDBRANCH 107 109
ENDBRANCH 106 107
ENDBRANCH  14 106
TORSDOF 45
REMARK  Name = ../refined-set-2016/2f7p/2f7p_pocket.pdb
REMARK  169 active torsions:
REMARK  status: ('A' for Active; 'I' for Inactive)
REMARK    1  A    between atoms: _1  and  _3
REMARK    2  A    between atoms: _14  and  _17
REMARK    3  A    between atoms: _17  and  _18
REMARK    4  A    between atoms: _25  and  _26
REMARK    5  A    between atoms: _33  and  _34
REMARK    6  A    between atoms: _39  and  _41
REMARK    7  A    between atoms: _41  and  _42
REMARK    8  A    between atoms: _44  and  _46
REMARK    9  A    between atoms: _46  and  _47
REMARK   10  A    between atoms: _46  and  _49
REMARK   11  A    between atoms: _49  and  _50
REMARK   12  A    between atoms: _60  and  _62
REMARK   13  A    between atoms: _62  and  _63
REMARK   14  A    between atoms: _62  and  _65
REMARK   15  A    between atoms: _65  and  _66
REMARK   16  A    between atoms: _69  and  _71
REMARK   17  A    between atoms: _71  and  _72
REMARK   18  A    between atoms: _71  and  _74
REMARK   19  A    between atoms: _74  and  _75
REMARK   20  A    between atoms: _80  and  _81
REMARK   21  A    between atoms: _83  and  _85
REMARK   22  A    between atoms: _85  and  _86
REMARK   23  A    between atoms: _85  and  _88
REMARK   24  A    between atoms: _88  and  _89
REMARK   25  A    between atoms: _89  and  _90
REMARK   26  A    between atoms: _93  and  _95
REMARK   27  A    between atoms: _95  and  _96
REMARK   28  A    between atoms: _95  and  _98
REMARK   29  A    between atoms: _98  and  _99
REMARK   30  A    between atoms: _99  and  _100
REMARK   31  A    between atoms: _102  and  _104
REMARK   32  A    between atoms: _104  and  _105
REMARK   33  A    between atoms: _104  and  _107
REMARK   34  A    between atoms: _107  and  _108
REMARK   35  A    between atoms: _111  and  _113
REMARK   36  A    between atoms: _113  and  _114
REMARK   37  A    between atoms: _113  and  _116
REMARK   38  A    between atoms: _116  and  _117
REMARK   39  A    between atoms: _117  and  _119
REMARK   40  A    between atoms: _119  and  ZN_456
REMARK   41  A    between atoms: _121  and  _122
REMARK   42  A    between atoms: _127  and  _129
REMARK   43  A    between atoms: _129  and  _130
REMARK   44  A    between atoms: _129  and  _132
REMARK   45  A    between atoms: _132  and  _133
REMARK   46  A    between atoms: _139  and  _141
REMARK   47  A    between atoms: _141  and  _142
REMARK   48  A    between atoms: _141  and  _144
REMARK   49  A    between atoms: _144  and  _145
REMARK   50  A    between atoms: _145  and  _146
REMARK   51  A    between atoms: _151  and  _153
REMARK   52  A    between atoms: _153  and  _154
REMARK   53  A    between atoms: _153  and  _156
REMARK   54  A    between atoms: _156  and  _157
REMARK   55  A    between atoms: _157  and  _158
REMARK   56  A    between atoms: _158  and  _159
REMARK   57  A    between atoms: _168  and  _170
REMARK   58  A    between atoms: _170  and  _171
REMARK   59  A    between atoms: _170  and  _173
REMARK   60  A    between atoms: _173  and  _174
REMARK   61  A    between atoms: _179  and  _180
REMARK   62  A    between atoms: _182  and  _184
REMARK   63  A    between atoms: _184  and  _185
REMARK   64  A    between atoms: _184  and  _187
REMARK   65  A    between atoms: _187  and  _188
REMARK   66  A    between atoms: _190  and  _192
REMARK   67  A    between atoms: _192  and  _193
REMARK   68  A    between atoms: _192  and  _195
REMARK   69  A    between atoms: _195  and  _196
REMARK   70  A    between atoms: _201  and  _202
REMARK   71  A    between atoms: _204  and  _206
REMARK   72  A    between atoms: _206  and  _207
REMARK   73  A    between atoms: _206  and  _209
REMARK   74  A    between atoms: _209  and  _210
REMARK   75  A    between atoms: _213  and  _215
REMARK   76  A    between atoms: _215  and  _216
REMARK   77  A    between atoms: _215  and  _218
REMARK   78  A    between atoms: _218  and  _219
REMARK   79  A    between atoms: _222  and  _224
REMARK   80  A    between atoms: _224  and  _225
REMARK   81  A    between atoms: _224  and  _227
REMARK   82  A    between atoms: _227  and  _228
REMARK   83  A    between atoms: _233  and  _235
REMARK   84  A    between atoms: _235  and  _236
REMARK   85  A    between atoms: _235  and  _238
REMARK   86  A    between atoms: _238  and  _239
REMARK   87  A    between atoms: _239  and  _240
REMARK   88  A    between atoms: _240  and  _241
REMARK   89  A    between atoms: _250  and  _252
REMARK   90  A    between atoms: _252  and  _253
REMARK   91  A    between atoms: _255  and  _257
REMARK   92  A    between atoms: _257  and  _258
REMARK   93  A    between atoms: _257  and  _260
REMARK   94  A    between atoms: _260  and  _261
REMARK   95  A    between atoms: _264  and  _266
REMARK   96  A    between atoms: _266  and  _267
REMARK   97  A    between atoms: _266  and  _269
REMARK   98  A    between atoms: _269  and  _270
REMARK   99  A    between atoms: _273  and  _275
REMARK  100  A    between atoms: _275  and  _276
REMARK  101  A    between atoms: _275  and  _278
REMARK  102  A    between atoms: _278  and  _279
REMARK  103  A    between atoms: _285  and  _287
REMARK  104  A    between atoms: _287  and  _288
REMARK  105  A    between atoms: _287  and  _290
REMARK  106  A    between atoms: _290  and  _291
REMARK  107  A    between atoms: _291  and  _292
REMARK  108  A    between atoms: _292  and  _293
REMARK  109  A    between atoms: _302  and  _304
REMARK  110  A    between atoms: _304  and  _305
REMARK  111  A    between atoms: _304  and  _307
REMARK  112  A    between atoms: _307  and  _308
REMARK  113  A    between atoms: _311  and  _313
REMARK  114  A    between atoms: _313  and  _314
REMARK  115  A    between atoms: _313  and  _316
REMARK  116  A    between atoms: _316  and  _317
REMARK  117  A    between atoms: _327  and  _329
REMARK  118  A    between atoms: _329  and  _330
REMARK  119  A    between atoms: _329  and  _332
REMARK  120  A    between atoms: _332  and  _333
REMARK  121  A    between atoms: _338  and  _340
REMARK  122  A    between atoms: _340  and  _341
REMARK  123  A    between atoms: _340  and  _343
REMARK  124  A    between atoms: _343  and  _344
REMARK  125  A    between atoms: _348  and  ZN_456
REMARK  126  A    between atoms: _349  and  _351
REMARK  127  A    between atoms: _351  and  _352
REMARK  128  A    between atoms: _351  and  _354
REMARK  129  A    between atoms: _354  and  _355
REMARK  130  A    between atoms: _358  and  _360
REMARK  131  A    between atoms: _360  and  _361
REMARK  132  A    between atoms: _363  and  _365
REMARK  133  A    between atoms: _365  and  _366
REMARK  134  A    between atoms: _365  and  _368
REMARK  135  A    between atoms: _368  and  _369
REMARK  136  A    between atoms: _372  and  _374
REMARK  137  A    between atoms: _374  and  _375
REMARK  138  A    between atoms: _374  and  _377
REMARK  139  A    between atoms: _377  and  _378
REMARK  140  A    between atoms: _381  and  _383
REMARK  141  A    between atoms: _383  and  _384
REMARK  142  A    between atoms: _387  and  _389
REMARK  143  A    between atoms: _389  and  _390
REMARK  144  A    between atoms: _389  and  _392
REMARK  145  A    between atoms: _392  and  _393
REMARK  146  A    between atoms: _398  and  _399
REMARK  147  A    between atoms: _401  and  _403
REMARK  148  A    between atoms: _403  and  _404
REMARK  149  A    between atoms: _403  and  _406
REMARK  150  A    between atoms: _406  and  _407
REMARK  151  A    between atoms: _410  and  _412
REMARK  152  A    between atoms: _412  and  _413
REMARK  153  A    between atoms: _412  and  _415
REMARK  154  A    between atoms: _415  and  _416
REMARK  155  A    between atoms: _416  and  _417
REMARK  156  A    between atoms: _420  and  _422
REMARK  157  A    between atoms: _422  and  _423
REMARK  158  A    between atoms: _422  and  _425
REMARK  159  A    between atoms: _425  and  _426
REMARK  160  A    between atoms: _426  and  _427
REMARK  161  A    between atoms: _427  and  _428
REMARK  162  A    between atoms: _437  and  _439
REMARK  163  A    between atoms: _439  and  _440
REMARK  164  A    between atoms: _442  and  _444
REMARK  165  A    between atoms: _444  and  _445
REMARK  166  A    between atoms: _444  and  _447
REMARK  167  A    between atoms: _447  and  _448
REMARK  168  A    between atoms: _451  and  _453
REMARK  169  A    between atoms: _453  and  _454
REMARK                            x       y       z     vdW  Elec       q    Type
REMARK                         _______ _______ _______ _____ _____    ______ ____
ROOT
ATOM      1  CG  TYR A   1      40.417  71.169  12.710  0.00  0.00    -0.020 A 
ATOM      2  CD2 TYR A   1      39.364  71.425  13.612  0.00  0.00    -0.001 A 
ATOM      3  CE2 TYR A   1      38.027  71.515  13.148  0.00  0.00    +0.036 A 
ATOM      4  CZ  TYR A   1      37.766  71.341  11.787  0.00  0.00    +0.134 A 
ATOM      5  CE1 TYR A   1      38.792  71.108  10.914  0.00  0.00    +0.036 A 
ATOM      6  CD1 TYR A   1      40.096  71.032  11.360  0.00  0.00    -0.001 A 
ENDROOT
BRANCH   4   7
ATOM      7  OH  TYR A   1      36.489  71.359  11.298  0.00  0.00    -0.506 OA
ATOM      8  HH  TYR A   1      35.856  71.538  12.038  0.00  0.00    +0.292 HD
ENDBRANCH   4   7
BRANCH   1   9
ATOM      9  CB  TYR A   1      41.810  70.905  13.178  0.00  0.00    +0.051 C 
BRANCH   9  10
ATOM     10  CA  TYR A   1      42.436  71.929  14.141  0.00  0.00    +0.137 C 
BRANCH  10  11
ATOM     11  N   TYR A   1      42.976  73.097  13.417  0.00  0.00    -0.239 NA
ATOM     12  H   TYR A   1      42.937  73.144  12.379  0.00  0.00    +0.142 HD
ENDBRANCH  10  11
BRANCH  10  13
ATOM     13  C   TYR A   1      43.561  71.215  14.890  0.00  0.00    +0.224 C 
ATOM     14  O   TYR A   1      43.327  70.666  15.987  0.00  0.00    -0.287 OA
ENDBRANCH  10  13
ENDBRANCH   9  10
ENDBRANCH   1   9
TORSDOF 5
REMARK  Name = ../refined-set-2016/2f7p/2f7p_pocket.pdb
REMARK  169 active torsions:
REMARK  status: ('A' for Active; 'I' for Inactive)
REMARK    1  A    between atoms: _1  and  _3
REMARK    2  A    between atoms: _14  and  _17
REMARK    3  A    between atoms: _17  and  _18
REMARK    4  A    between atoms: _25  and  _26
REMARK    5  A    between atoms: _33  and  _34
REMARK    6  A    between atoms: _39  and  _41
REMARK    7  A    between atoms: _41  and  _42
REMARK    8  A    between atoms: _44  and  _46
REMARK    9  A    between atoms: _46  and  _47
REMARK   10  A    between atoms: _46  and  _49
REMARK   11  A    between atoms: _49  and  _50
REMARK   12  A    between atoms: _60  and  _62
REMARK   13  A    between atoms: _62  and  _63
REMARK   14  A    between atoms: _62  and  _65
REMARK   15  A    between atoms: _65  and  _66
REMARK   16  A    between atoms: _69  and  _71
REMARK   17  A    between atoms: _71  and  _72
REMARK   18  A    between atoms: _71  and  _74
REMARK   19  A    between atoms: _74  and  _75
REMARK   20  A    between atoms: _80  and  _81
REMARK   21  A    between atoms: _83  and  _85
REMARK   22  A    between atoms: _85  and  _86
REMARK   23  A    between atoms: _85  and  _88
REMARK   24  A    between atoms: _88  and  _89
REMARK   25  A    between atoms: _89  and  _90
REMARK   26  A    between atoms: _93  and  _95
REMARK   27  A    between atoms: _95  and  _96
REMARK   28  A    between atoms: _95  and  _98
REMARK   29  A    between atoms: _98  and  _99
REMARK   30  A    between atoms: _99  and  _100
REMARK   31  A    between atoms: _102  and  _104
REMARK   32  A    between atoms: _104  and  _105
REMARK   33  A    between atoms: _104  and  _107
REMARK   34  A    between atoms: _107  and  _108
REMARK   35  A    between atoms: _111  and  _113
REMARK   36  A    between atoms: _113  and  _114
REMARK   37  A    between atoms: _113  and  _116
REMARK   38  A    between atoms: _116  and  _117
REMARK   39  A    between atoms: _117  and  _119
REMARK   40  A    between atoms: _119  and  ZN_456
REMARK   41  A    between atoms: _121  and  _122
REMARK   42  A    between atoms: _127  and  _129
REMARK   43  A    between atoms: _129  and  _130
REMARK   44  A    between atoms: _129  and  _132
REMARK   45  A    between atoms: _132  and  _133
REMARK   46  A    between atoms: _139  and  _141
REMARK   47  A    between atoms: _141  and  _142
REMARK   48  A    between atoms: _141  and  _144
REMARK   49  A    between atoms: _144  and  _145
REMARK   50  A    between atoms: _145  and  _146
REMARK   51  A    between atoms: _151  and  _153
REMARK   52  A    between atoms: _153  and  _154
REMARK   53  A    between atoms: _153  and  _156
REMARK   54  A    between atoms: _156  and  _157
REMARK   55  A    between atoms: _157  and  _158
REMARK   56  A    between atoms: _158  and  _159
REMARK   57  A    between atoms: _168  and  _170
REMARK   58  A    between atoms: _170  and  _171
REMARK   59  A    between atoms: _170  and  _173
REMARK   60  A    between atoms: _173  and  _174
REMARK   61  A    between atoms: _179  and  _180
REMARK   62  A    between atoms: _182  and  _184
REMARK   63  A    between atoms: _184  and  _185
REMARK   64  A    between atoms: _184  and  _187
REMARK   65  A    between atoms: _187  and  _188
REMARK   66  A    between atoms: _190  and  _192
REMARK   67  A    between atoms: _192  and  _193
REMARK   68  A    between atoms: _192  and  _195
REMARK   69  A    between atoms: _195  and  _196
REMARK   70  A    between atoms: _201  and  _202
REMARK   71  A    between atoms: _204  and  _206
REMARK   72  A    between atoms: _206  and  _207
REMARK   73  A    between atoms: _206  and  _209
REMARK   74  A    between atoms: _209  and  _210
REMARK   75  A    between atoms: _213  and  _215
REMARK   76  A    between atoms: _215  and  _216
REMARK   77  A    between atoms: _215  and  _218
REMARK   78  A    between atoms: _218  and  _219
REMARK   79  A    between atoms: _222  and  _224
REMARK   80  A    between atoms: _224  and  _225
REMARK   81  A    between atoms: _224  and  _227
REMARK   82  A    between atoms: _227  and  _228
REMARK   83  A    between atoms: _233  and  _235
REMARK   84  A    between atoms: _235  and  _236
REMARK   85  A    between atoms: _235  and  _238
REMARK   86  A    between atoms: _238  and  _239
REMARK   87  A    between atoms: _239  and  _240
REMARK   88  A    between atoms: _240  and  _241
REMARK   89  A    between atoms: _250  and  _252
REMARK   90  A    between atoms: _252  and  _253
REMARK   91  A    between atoms: _255  and  _257
REMARK   92  A    between atoms: _257  and  _258
REMARK   93  A    between atoms: _257  and  _260
REMARK   94  A    between atoms: _260  and  _261
REMARK   95  A    between atoms: _264  and  _266
REMARK   96  A    between atoms: _266  and  _267
REMARK   97  A    between atoms: _266  and  _269
REMARK   98  A    between atoms: _269  and  _270
REMARK   99  A    between atoms: _273  and  _275
REMARK  100  A    between atoms: _275  and  _276
REMARK  101  A    between atoms: _275  and  _278
REMARK  102  A    between atoms: _278  and  _279
REMARK  103  A    between atoms: _285  and  _287
REMARK  104  A    between atoms: _287  and  _288
REMARK  105  A    between atoms: _287  and  _290
REMARK  106  A    between atoms: _290  and  _291
REMARK  107  A    between atoms: _291  and  _292
REMARK  108  A    between atoms: _292  and  _293
REMARK  109  A    between atoms: _302  and  _304
REMARK  110  A    between atoms: _304  and  _305
REMARK  111  A    between atoms: _304  and  _307
REMARK  112  A    between atoms: _307  and  _308
REMARK  113  A    between atoms: _311  and  _313
REMARK  114  A    between atoms: _313  and  _314
REMARK  115  A    between atoms: _313  and  _316
REMARK  116  A    between atoms: _316  and  _317
REMARK  117  A    between atoms: _327  and  _329
REMARK  118  A    between atoms: _329  and  _330
REMARK  119  A    between atoms: _329  and  _332
REMARK  120  A    between atoms: _332  and  _333
REMARK  121  A    between atoms: _338  and  _340
REMARK  122  A    between atoms: _340  and  _341
REMARK  123  A    between atoms: _340  and  _343
REMARK  124  A    between atoms: _343  and  _344
REMARK  125  A    between atoms: _348  and  ZN_456
REMARK  126  A    between atoms: _349  and  _351
REMARK  127  A    between atoms: _351  and  _352
REMARK  128  A    between atoms: _351  and  _354
REMARK  129  A    between atoms: _354  and  _355
REMARK  130  A    between atoms: _358  and  _360
REMARK  131  A    between atoms: _360  and  _361
REMARK  132  A    between atoms: _363  and  _365
REMARK  133  A    between atoms: _365  and  _366
REMARK  134  A    between atoms: _365  and  _368
REMARK  135  A    between atoms: _368  and  _369
REMARK  136  A    between atoms: _372  and  _374
REMARK  137  A    between atoms: _374  and  _375
REMARK  138  A    between atoms: _374  and  _377
REMARK  139  A    between atoms: _377  and  _378
REMARK  140  A    between atoms: _381  and  _383
REMARK  141  A    between atoms: _383  and  _384
REMARK  142  A    between atoms: _387  and  _389
REMARK  143  A    between atoms: _389  and  _390
REMARK  144  A    between atoms: _389  and  _392
REMARK  145  A    between atoms: _392  and  _393
REMARK  146  A    between atoms: _398  and  _399
REMARK  147  A    between atoms: _401  and  _403
REMARK  148  A    between atoms: _403  and  _404
REMARK  149  A    between atoms: _403  and  _406
REMARK  150  A    between atoms: _406  and  _407
REMARK  151  A    between atoms: _410  and  _412
REMARK  152  A    between atoms: _412  and  _413
REMARK  153  A    between atoms: _412  and  _415
REMARK  154  A    between atoms: _415  and  _416
REMARK  155  A    between atoms: _416  and  _417
REMARK  156  A    between atoms: _420  and  _422
REMARK  157  A    between atoms: _422  and  _423
REMARK  158  A    between atoms: _422  and  _425
REMARK  159  A    between atoms: _425  and  _426
REMARK  160  A    between atoms: _426  and  _427
REMARK  161  A    between atoms: _427  and  _428
REMARK  162  A    between atoms: _437  and  _439
REMARK  163  A    between atoms: _439  and  _440
REMARK  164  A    between atoms: _442  and  _444
REMARK  165  A    between atoms: _444  and  _445
REMARK  166  A    between atoms: _444  and  _447
REMARK  167  A    between atoms: _447  and  _448
REMARK  168  A    between atoms: _451  and  _453
REMARK  169  A    between atoms: _453  and  _454
REMARK                            x       y       z     vdW  Elec       q    Type
REMARK                         _______ _______ _______ _____ _____    ______ ____
ROOT
ATOM      1  CA  GLU A   1      44.215  60.232   9.301  0.00  0.00    +0.134 C 
ENDROOT
BRANCH   1   2
ATOM      2  N   GLU A   1      43.578  59.142  10.128  0.00  0.00    -0.239 NA
ATOM      3  H   GLU A   1      43.206  59.366  11.073  0.00  0.00    +0.142 HD
ENDBRANCH   1   2
BRANCH   1   4
ATOM      4  C   GLU A   1      45.693  60.393   9.625  0.00  0.00    +0.224 C 
ATOM      5  O   GLU A   1      46.090  60.994  10.672  0.00  0.00    -0.287 OA
ENDBRANCH   1   4
BRANCH   1   6
ATOM      6  CB  GLU A   1      43.479  61.555   9.527  0.00  0.00    +0.037 C 
BRANCH   6   7
ATOM      7  CG  GLU A   1      41.941  61.477   9.289  0.00  0.00    +0.116 C 
BRANCH   7   8
ATOM      8  CD  GLU A   1      41.102  61.102  10.509  0.00  0.00    +0.365 C 
ATOM      9  OE2 GLU A   1      41.682  60.814  11.582  0.00  0.00    -0.246 OA
ATOM     10  OE1 GLU A   1      39.828  61.088  10.400  0.00  0.00    -0.246 OA
ENDBRANCH   7   8
ENDBRANCH   6   7
ENDBRANCH   1   6
TORSDOF 5
REMARK  Name = ../refined-set-2016/2f7p/2f7p_pocket.pdb
REMARK  169 active torsions:
REMARK  status: ('A' for Active; 'I' for Inactive)
REMARK    1  A    between atoms: _1  and  _3
REMARK    2  A    between atoms: _14  and  _17
REMARK    3  A    between atoms: _17  and  _18
REMARK    4  A    between atoms: _25  and  _26
REMARK    5  A    between atoms: _33  and  _34
REMARK    6  A    between atoms: _39  and  _41
REMARK    7  A    between atoms: _41  and  _42
REMARK    8  A    between atoms: _44  and  _46
REMARK    9  A    between atoms: _46  and  _47
REMARK   10  A    between atoms: _46  and  _49
REMARK   11  A    between atoms: _49  and  _50
REMARK   12  A    between atoms: _60  and  _62
REMARK   13  A    between atoms: _62  and  _63
REMARK   14  A    between atoms: _62  and  _65
REMARK   15  A    between atoms: _65  and  _66
REMARK   16  A    between atoms: _69  and  _71
REMARK   17  A    between atoms: _71  and  _72
REMARK   18  A    between atoms: _71  and  _74
REMARK   19  A    between atoms: _74  and  _75
REMARK   20  A    between atoms: _80  and  _81
REMARK   21  A    between atoms: _83  and  _85
REMARK   22  A    between atoms: _85  and  _86
REMARK   23  A    between atoms: _85  and  _88
REMARK   24  A    between atoms: _88  and  _89
REMARK   25  A    between atoms: _89  and  _90
REMARK   26  A    between atoms: _93  and  _95
REMARK   27  A    between atoms: _95  and  _96
REMARK   28  A    between atoms: _95  and  _98
REMARK   29  A    between atoms: _98  and  _99
REMARK   30  A    between atoms: _99  and  _100
REMARK   31  A    between atoms: _102  and  _104
REMARK   32  A    between atoms: _104  and  _105
REMARK   33  A    between atoms: _104  and  _107
REMARK   34  A    between atoms: _107  and  _108
REMARK   35  A    between atoms: _111  and  _113
REMARK   36  A    between atoms: _113  and  _114
REMARK   37  A    between atoms: _113  and  _116
REMARK   38  A    between atoms: _116  and  _117
REMARK   39  A    between atoms: _117  and  _119
REMARK   40  A    between atoms: _119  and  ZN_456
REMARK   41  A    between atoms: _121  and  _122
REMARK   42  A    between atoms: _127  and  _129
REMARK   43  A    between atoms: _129  and  _130
REMARK   44  A    between atoms: _129  and  _132
REMARK   45  A    between atoms: _132  and  _133
REMARK   46  A    between atoms: _139  and  _141
REMARK   47  A    between atoms: _141  and  _142
REMARK   48  A    between atoms: _141  and  _144
REMARK   49  A    between atoms: _144  and  _145
REMARK   50  A    between atoms: _145  and  _146
REMARK   51  A    between atoms: _151  and  _153
REMARK   52  A    between atoms: _153  and  _154
REMARK   53  A    between atoms: _153  and  _156
REMARK   54  A    between atoms: _156  and  _157
REMARK   55  A    between atoms: _157  and  _158
REMARK   56  A    between atoms: _158  and  _159
REMARK   57  A    between atoms: _168  and  _170
REMARK   58  A    between atoms: _170  and  _171
REMARK   59  A    between atoms: _170  and  _173
REMARK   60  A    between atoms: _173  and  _174
REMARK   61  A    between atoms: _179  and  _180
REMARK   62  A    between atoms: _182  and  _184
REMARK   63  A    between atoms: _184  and  _185
REMARK   64  A    between atoms: _184  and  _187
REMARK   65  A    between atoms: _187  and  _188
REMARK   66  A    between atoms: _190  and  _192
REMARK   67  A    between atoms: _192  and  _193
REMARK   68  A    between atoms: _192  and  _195
REMARK   69  A    between atoms: _195  and  _196
REMARK   70  A    between atoms: _201  and  _202
REMARK   71  A    between atoms: _204  and  _206
REMARK   72  A    between atoms: _206  and  _207
REMARK   73  A    between atoms: _206  and  _209
REMARK   74  A    between atoms: _209  and  _210
REMARK   75  A    between atoms: _213  and  _215
REMARK   76  A    between atoms: _215  and  _216
REMARK   77  A    between atoms: _215  and  _218
REMARK   78  A    between atoms: _218  and  _219
REMARK   79  A    between atoms: _222  and  _224
REMARK   80  A    between atoms: _224  and  _225
REMARK   81  A    between atoms: _224  and  _227
REMARK   82  A    between atoms: _227  and  _228
REMARK   83  A    between atoms: _233  and  _235
REMARK   84  A    between atoms: _235  and  _236
REMARK   85  A    between atoms: _235  and  _238
REMARK   86  A    between atoms: _238  and  _239
REMARK   87  A    between atoms: _239  and  _240
REMARK   88  A    between atoms: _240  and  _241
REMARK   89  A    between atoms: _250  and  _252
REMARK   90  A    between atoms: _252  and  _253
REMARK   91  A    between atoms: _255  and  _257
REMARK   92  A    between atoms: _257  and  _258
REMARK   93  A    between atoms: _257  and  _260
REMARK   94  A    between atoms: _260  and  _261
REMARK   95  A    between atoms: _264  and  _266
REMARK   96  A    between atoms: _266  and  _267
REMARK   97  A    between atoms: _266  and  _269
REMARK   98  A    between atoms: _269  and  _270
REMARK   99  A    between atoms: _273  and  _275
REMARK  100  A    between atoms: _275  and  _276
REMARK  101  A    between atoms: _275  and  _278
REMARK  102  A    between atoms: _278  and  _279
REMARK  103  A    between atoms: _285  and  _287
REMARK  104  A    between atoms: _287  and  _288
REMARK  105  A    between atoms: _287  and  _290
REMARK  106  A    between atoms: _290  and  _291
REMARK  107  A    between atoms: _291  and  _292
REMARK  108  A    between atoms: _292  and  _293
REMARK  109  A    between atoms: _302  and  _304
REMARK  110  A    between atoms: _304  and  _305
REMARK  111  A    between atoms: _304  and  _307
REMARK  112  A    between atoms: _307  and  _308
REMARK  113  A    between atoms: _311  and  _313
REMARK  114  A    between atoms: _313  and  _314
REMARK  115  A    between atoms: _313  and  _316
REMARK  116  A    between atoms: _316  and  _317
REMARK  117  A    between atoms: _327  and  _329
REMARK  118  A    between atoms: _329  and  _330
REMARK  119  A    between atoms: _329  and  _332
REMARK  120  A    between atoms: _332  and  _333
REMARK  121  A    between atoms: _338  and  _340
REMARK  122  A    between atoms: _340  and  _341
REMARK  123  A    between atoms: _340  and  _343
REMARK  124  A    between atoms: _343  and  _344
REMARK  125  A    between atoms: _348  and  ZN_456
REMARK  126  A    between atoms: _349  and  _351
REMARK  127  A    between atoms: _351  and  _352
REMARK  128  A    between atoms: _351  and  _354
REMARK  129  A    between atoms: _354  and  _355
REMARK  130  A    between atoms: _358  and  _360
REMARK  131  A    between atoms: _360  and  _361
REMARK  132  A    between atoms: _363  and  _365
REMARK  133  A    between atoms: _365  and  _366
REMARK  134  A    between atoms: _365  and  _368
REMARK  135  A    between atoms: _368  and  _369
REMARK  136  A    between atoms: _372  and  _374
REMARK  137  A    between atoms: _374  and  _375
REMARK  138  A    between atoms: _374  and  _377
REMARK  139  A    between atoms: _377  and  _378
REMARK  140  A    between atoms: _381  and  _383
REMARK  141  A    between atoms: _383  and  _384
REMARK  142  A    between atoms: _387  and  _389
REMARK  143  A    between atoms: _389  and  _390
REMARK  144  A    between atoms: _389  and  _392
REMARK  145  A    between atoms: _392  and  _393
REMARK  146  A    between atoms: _398  and  _399
REMARK  147  A    between atoms: _401  and  _403
REMARK  148  A    between atoms: _403  and  _404
REMARK  149  A    between atoms: _403  and  _406
REMARK  150  A    between atoms: _406  and  _407
REMARK  151  A    between atoms: _410  and  _412
REMARK  152  A    between atoms: _412  and  _413
REMARK  153  A    between atoms: _412  and  _415
REMARK  154  A    between atoms: _415  and  _416
REMARK  155  A    between atoms: _416  and  _417
REMARK  156  A    between atoms: _420  and  _422
REMARK  157  A    between atoms: _422  and  _423
REMARK  158  A    between atoms: _422  and  _425
REMARK  159  A    between atoms: _425  and  _426
REMARK  160  A    between atoms: _426  and  _427
REMARK  161  A    between atoms: _427  and  _428
REMARK  162  A    between atoms: _437  and  _439
REMARK  163  A    between atoms: _439  and  _440
REMARK  164  A    between atoms: _442  and  _444
REMARK  165  A    between atoms: _444  and  _445
REMARK  166  A    between atoms: _444  and  _447
REMARK  167  A    between atoms: _447  and  _448
REMARK  168  A    between atoms: _451  and  _453
REMARK  169  A    between atoms: _453  and  _454
REMARK                            x       y       z     vdW  Elec       q    Type
REMARK                         _______ _______ _______ _____ _____    ______ ____
ROOT
ATOM      1  CA  MET A   1      40.043  59.634   4.432  0.00  0.00    +0.134 C 
ENDROOT
BRANCH   1   2
ATOM      2  N   MET A   1      41.198  60.518   4.781  0.00  0.00    -0.239 NA
ATOM      3  H   MET A   1      41.000  61.421   5.257  0.00  0.00    +0.142 HD
ENDBRANCH   1   2
BRANCH   1   4
ATOM      4  C   MET A   1      39.497  60.375   3.175  0.00  0.00    +0.224 C 
ATOM      5  O   MET A   1      38.718  61.313   3.295  0.00  0.00    -0.287 OA
ENDBRANCH   1   4
BRANCH   1   6
ATOM      6  CB  MET A   1      39.046  59.634   5.584  0.00  0.00    +0.037 C 
BRANCH   6   7
ATOM      7  CG  MET A   1      37.770  58.780   5.277  0.00  0.00    +0.059 C 
BRANCH   7   8
ATOM      8  SD  MET A   1      36.589  58.920   6.649  0.00  0.00    -0.139 S 
ATOM      9  CE  MET A   1      37.556  58.157   8.012  0.00  0.00    +0.069 C 
ENDBRANCH   7   8
ENDBRANCH   6   7
ENDBRANCH   1   6
TORSDOF 5
REMARK  Name = ../refined-set-2016/2f7p/2f7p_pocket.pdb
REMARK  169 active torsions:
REMARK  status: ('A' for Active; 'I' for Inactive)
REMARK    1  A    between atoms: _1  and  _3
REMARK    2  A    between atoms: _14  and  _17
REMARK    3  A    between atoms: _17  and  _18
REMARK    4  A    between atoms: _25  and  _26
REMARK    5  A    between atoms: _33  and  _34
REMARK    6  A    between atoms: _39  and  _41
REMARK    7  A    between atoms: _41  and  _42
REMARK    8  A    between atoms: _44  and  _46
REMARK    9  A    between atoms: _46  and  _47
REMARK   10  A    between atoms: _46  and  _49
REMARK   11  A    between atoms: _49  and  _50
REMARK   12  A    between atoms: _60  and  _62
REMARK   13  A    between atoms: _62  and  _63
REMARK   14  A    between atoms: _62  and  _65
REMARK   15  A    between atoms: _65  and  _66
REMARK   16  A    between atoms: _69  and  _71
REMARK   17  A    between atoms: _71  and  _72
REMARK   18  A    between atoms: _71  and  _74
REMARK   19  A    between atoms: _74  and  _75
REMARK   20  A    between atoms: _80  and  _81
REMARK   21  A    between atoms: _83  and  _85
REMARK   22  A    between atoms: _85  and  _86
REMARK   23  A    between atoms: _85  and  _88
REMARK   24  A    between atoms: _88  and  _89
REMARK   25  A    between atoms: _89  and  _90
REMARK   26  A    between atoms: _93  and  _95
REMARK   27  A    between atoms: _95  and  _96
REMARK   28  A    between atoms: _95  and  _98
REMARK   29  A    between atoms: _98  and  _99
REMARK   30  A    between atoms: _99  and  _100
REMARK   31  A    between atoms: _102  and  _104
REMARK   32  A    between atoms: _104  and  _105
REMARK   33  A    between atoms: _104  and  _107
REMARK   34  A    between atoms: _107  and  _108
REMARK   35  A    between atoms: _111  and  _113
REMARK   36  A    between atoms: _113  and  _114
REMARK   37  A    between atoms: _113  and  _116
REMARK   38  A    between atoms: _116  and  _117
REMARK   39  A    between atoms: _117  and  _119
REMARK   40  A    between atoms: _119  and  ZN_456
REMARK   41  A    between atoms: _121  and  _122
REMARK   42  A    between atoms: _127  and  _129
REMARK   43  A    between atoms: _129  and  _130
REMARK   44  A    between atoms: _129  and  _132
REMARK   45  A    between atoms: _132  and  _133
REMARK   46  A    between atoms: _139  and  _141
REMARK   47  A    between atoms: _141  and  _142
REMARK   48  A    between atoms: _141  and  _144
REMARK   49  A    between atoms: _144  and  _145
REMARK   50  A    between atoms: _145  and  _146
REMARK   51  A    between atoms: _151  and  _153
REMARK   52  A    between atoms: _153  and  _154
REMARK   53  A    between atoms: _153  and  _156
REMARK   54  A    between atoms: _156  and  _157
REMARK   55  A    between atoms: _157  and  _158
REMARK   56  A    between atoms: _158  and  _159
REMARK   57  A    between atoms: _168  and  _170
REMARK   58  A    between atoms: _170  and  _171
REMARK   59  A    between atoms: _170  and  _173
REMARK   60  A    between atoms: _173  and  _174
REMARK   61  A    between atoms: _179  and  _180
REMARK   62  A    between atoms: _182  and  _184
REMARK   63  A    between atoms: _184  and  _185
REMARK   64  A    between atoms: _184  and  _187
REMARK   65  A    between atoms: _187  and  _188
REMARK   66  A    between atoms: _190  and  _192
REMARK   67  A    between atoms: _192  and  _193
REMARK   68  A    between atoms: _192  and  _195
REMARK   69  A    between atoms: _195  and  _196
REMARK   70  A    between atoms: _201  and  _202
REMARK   71  A    between atoms: _204  and  _206
REMARK   72  A    between atoms: _206  and  _207
REMARK   73  A    between atoms: _206  and  _209
REMARK   74  A    between atoms: _209  and  _210
REMARK   75  A    between atoms: _213  and  _215
REMARK   76  A    between atoms: _215  and  _216
REMARK   77  A    between atoms: _215  and  _218
REMARK   78  A    between atoms: _218  and  _219
REMARK   79  A    between atoms: _222  and  _224
REMARK   80  A    between atoms: _224  and  _225
REMARK   81  A    between atoms: _224  and  _227
REMARK   82  A    between atoms: _227  and  _228
REMARK   83  A    between atoms: _233  and  _235
REMARK   84  A    between atoms: _235  and  _236
REMARK   85  A    between atoms: _235  and  _238
REMARK   86  A    between atoms: _238  and  _239
REMARK   87  A    between atoms: _239  and  _240
REMARK   88  A    between atoms: _240  and  _241
REMARK   89  A    between atoms: _250  and  _252
REMARK   90  A    between atoms: _252  and  _253
REMARK   91  A    between atoms: _255  and  _257
REMARK   92  A    between atoms: _257  and  _258
REMARK   93  A    between atoms: _257  and  _260
REMARK   94  A    between atoms: _260  and  _261
REMARK   95  A    between atoms: _264  and  _266
REMARK   96  A    between atoms: _266  and  _267
REMARK   97  A    between atoms: _266  and  _269
REMARK   98  A    between atoms: _269  and  _270
REMARK   99  A    between atoms: _273  and  _275
REMARK  100  A    between atoms: _275  and  _276
REMARK  101  A    between atoms: _275  and  _278
REMARK  102  A    between atoms: _278  and  _279
REMARK  103  A    between atoms: _285  and  _287
REMARK  104  A    between atoms: _287  and  _288
REMARK  105  A    between atoms: _287  and  _290
REMARK  106  A    between atoms: _290  and  _291
REMARK  107  A    between atoms: _291  and  _292
REMARK  108  A    between atoms: _292  and  _293
REMARK  109  A    between atoms: _302  and  _304
REMARK  110  A    between atoms: _304  and  _305
REMARK  111  A    between atoms: _304  and  _307
REMARK  112  A    between atoms: _307  and  _308
REMARK  113  A    between atoms: _311  and  _313
REMARK  114  A    between atoms: _313  and  _314
REMARK  115  A    between atoms: _313  and  _316
REMARK  116  A    between atoms: _316  and  _317
REMARK  117  A    between atoms: _327  and  _329
REMARK  118  A    between atoms: _329  and  _330
REMARK  119  A    between atoms: _329  and  _332
REMARK  120  A    between atoms: _332  and  _333
REMARK  121  A    between atoms: _338  and  _340
REMARK  122  A    between atoms: _340  and  _341
REMARK  123  A    between atoms: _340  and  _343
REMARK  124  A    between atoms: _343  and  _344
REMARK  125  A    between atoms: _348  and  ZN_456
REMARK  126  A    between atoms: _349  and  _351
REMARK  127  A    between atoms: _351  and  _352
REMARK  128  A    between atoms: _351  and  _354
REMARK  129  A    between atoms: _354  and  _355
REMARK  130  A    between atoms: _358  and  _360
REMARK  131  A    between atoms: _360  and  _361
REMARK  132  A    between atoms: _363  and  _365
REMARK  133  A    between atoms: _365  and  _366
REMARK  134  A    between atoms: _365  and  _368
REMARK  135  A    between atoms: _368  and  _369
REMARK  136  A    between atoms: _372  and  _374
REMARK  137  A    between atoms: _374  and  _375
REMARK  138  A    between atoms: _374  and  _377
REMARK  139  A    between atoms: _377  and  _378
REMARK  140  A    between atoms: _381  and  _383
REMARK  141  A    between atoms: _383  and  _384
REMARK  142  A    between atoms: _387  and  _389
REMARK  143  A    between atoms: _389  and  _390
REMARK  144  A    between atoms: _389  and  _392
REMARK  145  A    between atoms: _392  and  _393
REMARK  146  A    between atoms: _398  and  _399
REMARK  147  A    between atoms: _401  and  _403
REMARK  148  A    between atoms: _403  and  _404
REMARK  149  A    between atoms: _403  and  _406
REMARK  150  A    between atoms: _406  and  _407
REMARK  151  A    between atoms: _410  and  _412
REMARK  152  A    between atoms: _412  and  _413
REMARK  153  A    between atoms: _412  and  _415
REMARK  154  A    between atoms: _415  and  _416
REMARK  155  A    between atoms: _416  and  _417
REMARK  156  A    between atoms: _420  and  _422
REMARK  157  A    between atoms: _422  and  _423
REMARK  158  A    between atoms: _422  and  _425
REMARK  159  A    between atoms: _425  and  _426
REMARK  160  A    between atoms: _426  and  _427
REMARK  161  A    between atoms: _427  and  _428
REMARK  162  A    between atoms: _437  and  _439
REMARK  163  A    between atoms: _439  and  _440
REMARK  164  A    between atoms: _442  and  _444
REMARK  165  A    between atoms: _444  and  _445
REMARK  166  A    between atoms: _444  and  _447
REMARK  167  A    between atoms: _447  and  _448
REMARK  168  A    between atoms: _451  and  _453
REMARK  169  A    between atoms: _453  and  _454
REMARK                            x       y       z     vdW  Elec       q    Type
REMARK                         _______ _______ _______ _____ _____    ______ ____
ROOT
ATOM      1  CA  ARG A   2      27.275  56.907   3.783  0.00  0.00    +0.137 C 
ENDROOT
BRANCH   1   4
ATOM      2  C   GLN A   1      27.825  55.100   5.246  0.00  0.00    +0.238 C 
ATOM      3  O   GLN A   1      26.611  54.911   5.422  0.00  0.00    -0.274 OA
ATOM      4  N   ARG A   2      28.243  56.029   4.417  0.00  0.00    -0.298 N 
ATOM      5  H   ARG A   2      29.258  56.135   4.216  0.00  0.00    +0.150 HD
BRANCH   2   6
ATOM      6  CA  GLN A   1      28.812  54.264   6.062  0.00  0.00    +0.145 C 
BRANCH   6   7
ATOM      7  N   GLN A   1      29.967  53.753   5.324  0.00  0.00    -0.238 NA
ATOM      8  H   GLN A   1      30.459  54.390   4.665  0.00  0.00    +0.142 HD
ENDBRANCH   6   7
BRANCH   6   9
ATOM      9  CB  GLN A   1      29.330  55.157   7.212  0.00  0.00    +0.036 C 
BRANCH   9  10
ATOM     10  CG  GLN A   1      28.300  56.205   7.790  0.00  0.00    +0.087 C 
BRANCH  10  11
ATOM     11  CD  GLN A   1      26.994  55.657   8.344  0.00  0.00    +0.219 C 
ATOM     12  OE1 GLN A   1      26.917  54.491   8.733  0.00  0.00    -0.275 OA
ATOM     13  NE2 GLN A   1      25.994  56.487   8.374  0.00  0.00    -0.329 N 
ATOM     14 HE21 GLN A   1      25.071  56.177   8.740  0.00  0.00    +0.145 HD
ATOM     15 HE22 GLN A   1      26.117  57.461   8.032  0.00  0.00    +0.145 HD
ENDBRANCH  10  11
ENDBRANCH   9  10
ENDBRANCH   6   9
ENDBRANCH   2   6
ENDBRANCH   1   4
BRANCH   1  16
ATOM     16  C   ARG A   2      26.757  56.348   2.501  0.00  0.00    +0.227 C 
ATOM     17  O   ARG A   2      27.279  56.604   1.424  0.00  0.00    -0.286 OA
ENDBRANCH   1  16
BRANCH   1  18
ATOM     18  CB  ARG A   2      27.878  58.324   3.567  0.00  0.00    +0.031 C 
BRANCH  18  19
ATOM     19  CG  ARG A   2      28.109  59.056   4.845  0.00  0.00    +0.045 C 
BRANCH  19  20
ATOM     20  CD  ARG A   2      28.364  60.532   4.558  0.00  0.00    +0.174 C 
BRANCH  20  21
ATOM     21  NE  ARG A   2      28.685  61.367   5.728  0.00  0.00    -0.265 N 
ATOM     22  CZ  ARG A   2      27.791  62.094   6.382  0.00  0.00    +0.342 C 
ATOM     23  NH2 ARG A   2      28.175  62.971   7.305  0.00  0.00    -0.292 N 
ATOM     24 HH21 ARG A   2      27.465  63.537   7.812  0.00  0.00    +0.255 HD
ATOM     25 HH22 ARG A   2      29.186  63.091   7.519  0.00  0.00    +0.255 HD
ATOM     26  NH1 ARG A   2      26.507  62.052   6.034  0.00  0.00    -0.292 N 
ATOM     27 HH11 ARG A   2      25.809  62.625   6.551  0.00  0.00    +0.255 HD
ATOM     28 HH12 ARG A   2      26.201  61.447   5.246  0.00  0.00    +0.255 HD
ATOM     29  HE  ARG A   2      29.670  61.387   6.060  0.00  0.00    +0.259 HD
ENDBRANCH  20  21
ENDBRANCH  19  20
ENDBRANCH  18  19
ENDBRANCH   1  18
TORSDOF 11
REMARK  Name = ../refined-set-2016/2f7p/2f7p_pocket.pdb
REMARK  169 active torsions:
REMARK  status: ('A' for Active; 'I' for Inactive)
REMARK    1  A    between atoms: _1  and  _3
REMARK    2  A    between atoms: _14  and  _17
REMARK    3  A    between atoms: _17  and  _18
REMARK    4  A    between atoms: _25  and  _26
REMARK    5  A    between atoms: _33  and  _34
REMARK    6  A    between atoms: _39  and  _41
REMARK    7  A    between atoms: _41  and  _42
REMARK    8  A    between atoms: _44  and  _46
REMARK    9  A    between atoms: _46  and  _47
REMARK   10  A    between atoms: _46  and  _49
REMARK   11  A    between atoms: _49  and  _50
REMARK   12  A    between atoms: _60  and  _62
REMARK   13  A    between atoms: _62  and  _63
REMARK   14  A    between atoms: _62  and  _65
REMARK   15  A    between atoms: _65  and  _66
REMARK   16  A    between atoms: _69  and  _71
REMARK   17  A    between atoms: _71  and  _72
REMARK   18  A    between atoms: _71  and  _74
REMARK   19  A    between atoms: _74  and  _75
REMARK   20  A    between atoms: _80  and  _81
REMARK   21  A    between atoms: _83  and  _85
REMARK   22  A    between atoms: _85  and  _86
REMARK   23  A    between atoms: _85  and  _88
REMARK   24  A    between atoms: _88  and  _89
REMARK   25  A    between atoms: _89  and  _90
REMARK   26  A    between atoms: _93  and  _95
REMARK   27  A    between atoms: _95  and  _96
REMARK   28  A    between atoms: _95  and  _98
REMARK   29  A    between atoms: _98  and  _99
REMARK   30  A    between atoms: _99  and  _100
REMARK   31  A    between atoms: _102  and  _104
REMARK   32  A    between atoms: _104  and  _105
REMARK   33  A    between atoms: _104  and  _107
REMARK   34  A    between atoms: _107  and  _108
REMARK   35  A    between atoms: _111  and  _113
REMARK   36  A    between atoms: _113  and  _114
REMARK   37  A    between atoms: _113  and  _116
REMARK   38  A    between atoms: _116  and  _117
REMARK   39  A    between atoms: _117  and  _119
REMARK   40  A    between atoms: _119  and  ZN_456
REMARK   41  A    between atoms: _121  and  _122
REMARK   42  A    between atoms: _127  and  _129
REMARK   43  A    between atoms: _129  and  _130
REMARK   44  A    between atoms: _129  and  _132
REMARK   45  A    between atoms: _132  and  _133
REMARK   46  A    between atoms: _139  and  _141
REMARK   47  A    between atoms: _141  and  _142
REMARK   48  A    between atoms: _141  and  _144
REMARK   49  A    between atoms: _144  and  _145
REMARK   50  A    between atoms: _145  and  _146
REMARK   51  A    between atoms: _151  and  _153
REMARK   52  A    between atoms: _153  and  _154
REMARK   53  A    between atoms: _153  and  _156
REMARK   54  A    between atoms: _156  and  _157
REMARK   55  A    between atoms: _157  and  _158
REMARK   56  A    between atoms: _158  and  _159
REMARK   57  A    between atoms: _168  and  _170
REMARK   58  A    between atoms: _170  and  _171
REMARK   59  A    between atoms: _170  and  _173
REMARK   60  A    between atoms: _173  and  _174
REMARK   61  A    between atoms: _179  and  _180
REMARK   62  A    between atoms: _182  and  _184
REMARK   63  A    between atoms: _184  and  _185
REMARK   64  A    between atoms: _184  and  _187
REMARK   65  A    between atoms: _187  and  _188
REMARK   66  A    between atoms: _190  and  _192
REMARK   67  A    between atoms: _192  and  _193
REMARK   68  A    between atoms: _192  and  _195
REMARK   69  A    between atoms: _195  and  _196
REMARK   70  A    between atoms: _201  and  _202
REMARK   71  A    between atoms: _204  and  _206
REMARK   72  A    between atoms: _206  and  _207
REMARK   73  A    between atoms: _206  and  _209
REMARK   74  A    between atoms: _209  and  _210
REMARK   75  A    between atoms: _213  and  _215
REMARK   76  A    between atoms: _215  and  _216
REMARK   77  A    between atoms: _215  and  _218
REMARK   78  A    between atoms: _218  and  _219
REMARK   79  A    between atoms: _222  and  _224
REMARK   80  A    between atoms: _224  and  _225
REMARK   81  A    between atoms: _224  and  _227
REMARK   82  A    between atoms: _227  and  _228
REMARK   83  A    between atoms: _233  and  _235
REMARK   84  A    between atoms: _235  and  _236
REMARK   85  A    between atoms: _235  and  _238
REMARK   86  A    between atoms: _238  and  _239
REMARK   87  A    between atoms: _239  and  _240
REMARK   88  A    between atoms: _240  and  _241
REMARK   89  A    between atoms: _250  and  _252
REMARK   90  A    between atoms: _252  and  _253
REMARK   91  A    between atoms: _255  and  _257
REMARK   92  A    between atoms: _257  and  _258
REMARK   93  A    between atoms: _257  and  _260
REMARK   94  A    between atoms: _260  and  _261
REMARK   95  A    between atoms: _264  and  _266
REMARK   96  A    between atoms: _266  and  _267
REMARK   97  A    between atoms: _266  and  _269
REMARK   98  A    between atoms: _269  and  _270
REMARK   99  A    between atoms: _273  and  _275
REMARK  100  A    between atoms: _275  and  _276
REMARK  101  A    between atoms: _275  and  _278
REMARK  102  A    between atoms: _278  and  _279
REMARK  103  A    between atoms: _285  and  _287
REMARK  104  A    between atoms: _287  and  _288
REMARK  105  A    between atoms: _287  and  _290
REMARK  106  A    between atoms: _290  and  _291
REMARK  107  A    between atoms: _291  and  _292
REMARK  108  A    between atoms: _292  and  _293
REMARK  109  A    between atoms: _302  and  _304
REMARK  110  A    between atoms: _304  and  _305
REMARK  111  A    between atoms: _304  and  _307
REMARK  112  A    between atoms: _307  and  _308
REMARK  113  A    between atoms: _311  and  _313
REMARK  114  A    between atoms: _313  and  _314
REMARK  115  A    between atoms: _313  and  _316
REMARK  116  A    between atoms: _316  and  _317
REMARK  117  A    between atoms: _327  and  _329
REMARK  118  A    between atoms: _329  and  _330
REMARK  119  A    between atoms: _329  and  _332
REMARK  120  A    between atoms: _332  and  _333
REMARK  121  A    between atoms: _338  and  _340
REMARK  122  A    between atoms: _340  and  _341
REMARK  123  A    between atoms: _340  and  _343
REMARK  124  A    between atoms: _343  and  _344
REMARK  125  A    between atoms: _348  and  ZN_456
REMARK  126  A    between atoms: _349  and  _351
REMARK  127  A    between atoms: _351  and  _352
REMARK  128  A    between atoms: _351  and  _354
REMARK  129  A    between atoms: _354  and  _355
REMARK  130  A    between atoms: _358  and  _360
REMARK  131  A    between atoms: _360  and  _361
REMARK  132  A    between atoms: _363  and  _365
REMARK  133  A    between atoms: _365  and  _366
REMARK  134  A    between atoms: _365  and  _368
REMARK  135  A    between atoms: _368  and  _369
REMARK  136  A    between atoms: _372  and  _374
REMARK  137  A    between atoms: _374  and  _375
REMARK  138  A    between atoms: _374  and  _377
REMARK  139  A    between atoms: _377  and  _378
REMARK  140  A    between atoms: _381  and  _383
REMARK  141  A    between atoms: _383  and  _384
REMARK  142  A    between atoms: _387  and  _389
REMARK  143  A    between atoms: _389  and  _390
REMARK  144  A    between atoms: _389  and  _392
REMARK  145  A    between atoms: _392  and  _393
REMARK  146  A    between atoms: _398  and  _399
REMARK  147  A    between atoms: _401  and  _403
REMARK  148  A    between atoms: _403  and  _404
REMARK  149  A    between atoms: _403  and  _406
REMARK  150  A    between atoms: _406  and  _407
REMARK  151  A    between atoms: _410  and  _412
REMARK  152  A    between atoms: _412  and  _413
REMARK  153  A    between atoms: _412  and  _415
REMARK  154  A    between atoms: _415  and  _416
REMARK  155  A    between atoms: _416  and  _417
REMARK  156  A    between atoms: _420  and  _422
REMARK  157  A    between atoms: _422  and  _423
REMARK  158  A    between atoms: _422  and  _425
REMARK  159  A    between atoms: _425  and  _426
REMARK  160  A    between atoms: _426  and  _427
REMARK  161  A    between atoms: _427  and  _428
REMARK  162  A    between atoms: _437  and  _439
REMARK  163  A    between atoms: _439  and  _440
REMARK  164  A    between atoms: _442  and  _444
REMARK  165  A    between atoms: _444  and  _445
REMARK  166  A    between atoms: _444  and  _447
REMARK  167  A    between atoms: _447  and  _448
REMARK  168  A    between atoms: _451  and  _453
REMARK  169  A    between atoms: _453  and  _454
REMARK                            x       y       z     vdW  Elec       q    Type
REMARK                         _______ _______ _______ _____ _____    ______ ____
ROOT
ATOM      1  CA  TYR A   3      28.392  57.137  12.724  0.00  0.00    +0.153 C 
ENDROOT
BRANCH   1   4
ATOM      2  C   SER A   2      26.142  57.442  11.800  0.00  0.00    +0.243 C 
ATOM      3  O   SER A   2      25.741  56.341  12.212  0.00  0.00    -0.273 OA
ATOM      4  N   TYR A   3      27.404  57.868  11.957  0.00  0.00    -0.297 N 
ATOM      5  H   TYR A   3      27.686  58.763  11.508  0.00  0.00    +0.150 HD
BRANCH   2   6
ATOM      6  CA  SER A   2      25.217  58.389  11.085  0.00  0.00    +0.178 C 
BRANCH   6   8
ATOM      7  C   TYR A   1      23.201  58.029   9.768  0.00  0.00    +0.239 C 
ATOM      8  N   SER A   2      23.920  57.718  10.832  0.00  0.00    -0.295 N 
ATOM      9  H   SER A   2      23.573  56.997  11.497  0.00  0.00    +0.150 HD
ATOM     10  O   TYR A   1      23.579  58.856   8.946  0.00  0.00    -0.274 OA
BRANCH   7  11
ATOM     11  CA  TYR A   1      21.872  57.303   9.574  0.00  0.00    +0.149 C 
BRANCH  11  12
ATOM     12  N   TYR A   1      21.773  55.992  10.206  0.00  0.00    -0.238 NA
ATOM     13  H   TYR A   1      21.156  55.881  11.035  0.00  0.00    +0.142 HD
ENDBRANCH  11  12
BRANCH  11  14
ATOM     14  CB  TYR A   1      20.682  58.158  10.083  0.00  0.00    +0.053 C 
BRANCH  14  15
ATOM     15  CG  TYR A   1      20.825  59.660   9.987  0.00  0.00    -0.020 A 
ATOM     16  CD2 TYR A   1      21.253  60.394  11.090  0.00  0.00    -0.001 A 
ATOM     17  CE2 TYR A   1      21.362  61.760  11.035  0.00  0.00    +0.036 A 
ATOM     18  CZ  TYR A   1      21.041  62.424   9.863  0.00  0.00    +0.134 A 
ATOM     19  CE1 TYR A   1      20.617  61.733   8.751  0.00  0.00    +0.036 A 
ATOM     20  CD1 TYR A   1      20.511  60.340   8.823  0.00  0.00    -0.001 A 
BRANCH  18  21
ATOM     21  OH  TYR A   1      21.130  63.806   9.836  0.00  0.00    -0.506 OA
ATOM     22  HH  TYR A   1      20.872  64.135   8.939  0.00  0.00    +0.292 HD
ENDBRANCH  18  21
ENDBRANCH  14  15
ENDBRANCH  11  14
ENDBRANCH   7  11
ENDBRANCH   6   8
BRANCH   6  23
ATOM     23  CB  SER A   2      24.936  59.612  11.979  0.00  0.00    +0.166 C 
BRANCH  23  24
ATOM     24  OG  SER A   2      26.128  60.310  12.336  0.00  0.00    -0.380 OA
ATOM     25  H   SER A   2      26.581  60.628  11.515  0.00  0.00    +0.211 HD
ENDBRANCH  23  24
ENDBRANCH   6  23
ENDBRANCH   2   6
ENDBRANCH   1   4
BRANCH   1  26
ATOM     26  C   TYR A   3      28.533  57.679  14.145  0.00  0.00    +0.241 C 
ATOM     27  O   TYR A   3      29.390  57.200  14.886  0.00  0.00    -0.273 OA
ATOM     28  N   ASP A   4      27.716  58.659  14.529  0.00  0.00    -0.297 N 
ATOM     29  H   ASP A   4      27.029  59.052  13.855  0.00  0.00    +0.150 HD
BRANCH  28  30
ATOM     30  CA  ASP A   4      27.779  59.188  15.897  0.00  0.00    +0.160 C 
BRANCH  30  31
ATOM     31  C   ASP A   4      27.189  58.156  16.877  0.00  0.00    +0.241 C 
ATOM     32  N   ILE A   5      27.408  58.391  18.165  0.00  0.00    -0.298 N 
ATOM     33  H   ILE A   5      27.873  59.271  18.466  0.00  0.00    +0.150 HD
ATOM     34  O   ASP A   4      26.645  57.126  16.485  0.00  0.00    -0.273 OA
BRANCH  32  35
ATOM     35  CA  ILE A   5      26.985  57.389  19.170  0.00  0.00    +0.137 C 
BRANCH  35  36
ATOM     36  C   ILE A   5      25.464  57.112  19.131  0.00  0.00    +0.227 C 
ATOM     37  O   ILE A   5      25.059  55.950  19.163  0.00  0.00    -0.286 OA
ENDBRANCH  35  36
BRANCH  35  38
ATOM     38  CB  ILE A   5      27.559  57.707  20.544  0.00  0.00    +0.026 C 
ATOM     39  CG2 ILE A   5      26.984  56.746  21.587  0.00  0.00    +0.002 C 
BRANCH  38  40
ATOM     40  CG1 ILE A   5      29.081  57.602  20.467  0.00  0.00    +0.002 C 
ATOM     41  CD1 ILE A   5      29.794  58.232  21.664  0.00  0.00    +0.000 C 
ENDBRANCH  38  40
ENDBRANCH  35  38
ENDBRANCH  32  35
ENDBRANCH  30  31
BRANCH  30  42
ATOM     42  CB  ASP A   4      27.144  60.576  15.999  0.00  0.00    +0.143 C 
BRANCH  42  43
ATOM     43  CG  ASP A   4      25.644  60.615  15.789  0.00  0.00    +0.367 C 
ATOM     44  OD2 ASP A   4      25.117  61.770  15.862  0.00  0.00    -0.246 OA
ATOM     45  OD1 ASP A   4      24.992  59.568  15.568  0.00  0.00    -0.246 OA
ENDBRANCH  42  43
ENDBRANCH  30  42
ENDBRANCH  28  30
ENDBRANCH   1  26
BRANCH   1  46
ATOM     46  CB  TYR A   3      29.784  57.178  12.040  0.00  0.00    +0.055 C 
BRANCH  46  47
ATOM     47  CG  TYR A   3      30.307  58.541  11.737  0.00  0.00    -0.020 A 
ATOM     48  CD2 TYR A   3      30.800  59.357  12.762  0.00  0.00    -0.001 A 
ATOM     49  CE2 TYR A   3      31.331  60.620  12.501  0.00  0.00    +0.036 A 
ATOM     50  CZ  TYR A   3      31.344  61.066  11.193  0.00  0.00    +0.134 A 
ATOM     51  CE1 TYR A   3      30.852  60.306  10.143  0.00  0.00    +0.036 A 
ATOM     52  CD1 TYR A   3      30.328  59.032  10.424  0.00  0.00    -0.001 A 
BRANCH  50  53
ATOM     53  OH  TYR A   3      31.886  62.275  10.860  0.00  0.00    -0.506 OA
ATOM     54  HH  TYR A   3      32.204  62.730  11.680  0.00  0.00    +0.292 HD
ENDBRANCH  50  53
ENDBRANCH  46  47
ENDBRANCH   1  46
TORSDOF 22
REMARK  Name = ../refined-set-2016/2f7p/2f7p_pocket.pdb
REMARK  169 active torsions:
REMARK  status: ('A' for Active; 'I' for Inactive)
REMARK    1  A    between atoms: _1  and  _3
REMARK    2  A    between atoms: _14  and  _17
REMARK    3  A    between atoms: _17  and  _18
REMARK    4  A    between atoms: _25  and  _26
REMARK    5  A    between atoms: _33  and  _34
REMARK    6  A    between atoms: _39  and  _41
REMARK    7  A    between atoms: _41  and  _42
REMARK    8  A    between atoms: _44  and  _46
REMARK    9  A    between atoms: _46  and  _47
REMARK   10  A    between atoms: _46  and  _49
REMARK   11  A    between atoms: _49  and  _50
REMARK   12  A    between atoms: _60  and  _62
REMARK   13  A    between atoms: _62  and  _63
REMARK   14  A    between atoms: _62  and  _65
REMARK   15  A    between atoms: _65  and  _66
REMARK   16  A    between atoms: _69  and  _71
REMARK   17  A    between atoms: _71  and  _72
REMARK   18  A    between atoms: _71  and  _74
REMARK   19  A    between atoms: _74  and  _75
REMARK   20  A    between atoms: _80  and  _81
REMARK   21  A    between atoms: _83  and  _85
REMARK   22  A    between atoms: _85  and  _86
REMARK   23  A    between atoms: _85  and  _88
REMARK   24  A    between atoms: _88  and  _89
REMARK   25  A    between atoms: _89  and  _90
REMARK   26  A    between atoms: _93  and  _95
REMARK   27  A    between atoms: _95  and  _96
REMARK   28  A    between atoms: _95  and  _98
REMARK   29  A    between atoms: _98  and  _99
REMARK   30  A    between atoms: _99  and  _100
REMARK   31  A    between atoms: _102  and  _104
REMARK   32  A    between atoms: _104  and  _105
REMARK   33  A    between atoms: _104  and  _107
REMARK   34  A    between atoms: _107  and  _108
REMARK   35  A    between atoms: _111  and  _113
REMARK   36  A    between atoms: _113  and  _114
REMARK   37  A    between atoms: _113  and  _116
REMARK   38  A    between atoms: _116  and  _117
REMARK   39  A    between atoms: _117  and  _119
REMARK   40  A    between atoms: _119  and  ZN_456
REMARK   41  A    between atoms: _121  and  _122
REMARK   42  A    between atoms: _127  and  _129
REMARK   43  A    between atoms: _129  and  _130
REMARK   44  A    between atoms: _129  and  _132
REMARK   45  A    between atoms: _132  and  _133
REMARK   46  A    between atoms: _139  and  _141
REMARK   47  A    between atoms: _141  and  _142
REMARK   48  A    between atoms: _141  and  _144
REMARK   49  A    between atoms: _144  and  _145
REMARK   50  A    between atoms: _145  and  _146
REMARK   51  A    between atoms: _151  and  _153
REMARK   52  A    between atoms: _153  and  _154
REMARK   53  A    between atoms: _153  and  _156
REMARK   54  A    between atoms: _156  and  _157
REMARK   55  A    between atoms: _157  and  _158
REMARK   56  A    between atoms: _158  and  _159
REMARK   57  A    between atoms: _168  and  _170
REMARK   58  A    between atoms: _170  and  _171
REMARK   59  A    between atoms: _170  and  _173
REMARK   60  A    between atoms: _173  and  _174
REMARK   61  A    between atoms: _179  and  _180
REMARK   62  A    between atoms: _182  and  _184
REMARK   63  A    between atoms: _184  and  _185
REMARK   64  A    between atoms: _184  and  _187
REMARK   65  A    between atoms: _187  and  _188
REMARK   66  A    between atoms: _190  and  _192
REMARK   67  A    between atoms: _192  and  _193
REMARK   68  A    between atoms: _192  and  _195
REMARK   69  A    between atoms: _195  and  _196
REMARK   70  A    between atoms: _201  and  _202
REMARK   71  A    between atoms: _204  and  _206
REMARK   72  A    between atoms: _206  and  _207
REMARK   73  A    between atoms: _206  and  _209
REMARK   74  A    between atoms: _209  and  _210
REMARK   75  A    between atoms: _213  and  _215
REMARK   76  A    between atoms: _215  and  _216
REMARK   77  A    between atoms: _215  and  _218
REMARK   78  A    between atoms: _218  and  _219
REMARK   79  A    between atoms: _222  and  _224
REMARK   80  A    between atoms: _224  and  _225
REMARK   81  A    between atoms: _224  and  _227
REMARK   82  A    between atoms: _227  and  _228
REMARK   83  A    between atoms: _233  and  _235
REMARK   84  A    between atoms: _235  and  _236
REMARK   85  A    between atoms: _235  and  _238
REMARK   86  A    between atoms: _238  and  _239
REMARK   87  A    between atoms: _239  and  _240
REMARK   88  A    between atoms: _240  and  _241
REMARK   89  A    between atoms: _250  and  _252
REMARK   90  A    between atoms: _252  and  _253
REMARK   91  A    between atoms: _255  and  _257
REMARK   92  A    between atoms: _257  and  _258
REMARK   93  A    between atoms: _257  and  _260
REMARK   94  A    between atoms: _260  and  _261
REMARK   95  A    between atoms: _264  and  _266
REMARK   96  A    between atoms: _266  and  _267
REMARK   97  A    between atoms: _266  and  _269
REMARK   98  A    between atoms: _269  and  _270
REMARK   99  A    between atoms: _273  and  _275
REMARK  100  A    between atoms: _275  and  _276
REMARK  101  A    between atoms: _275  and  _278
REMARK  102  A    between atoms: _278  and  _279
REMARK  103  A    between atoms: _285  and  _287
REMARK  104  A    between atoms: _287  and  _288
REMARK  105  A    between atoms: _287  and  _290
REMARK  106  A    between atoms: _290  and  _291
REMARK  107  A    between atoms: _291  and  _292
REMARK  108  A    between atoms: _292  and  _293
REMARK  109  A    between atoms: _302  and  _304
REMARK  110  A    between atoms: _304  and  _305
REMARK  111  A    between atoms: _304  and  _307
REMARK  112  A    between atoms: _307  and  _308
REMARK  113  A    between atoms: _311  and  _313
REMARK  114  A    between atoms: _313  and  _314
REMARK  115  A    between atoms: _313  and  _316
REMARK  116  A    between atoms: _316  and  _317
REMARK  117  A    between atoms: _327  and  _329
REMARK  118  A    between atoms: _329  and  _330
REMARK  119  A    between atoms: _329  and  _332
REMARK  120  A    between atoms: _332  and  _333
REMARK  121  A    between atoms: _338  and  _340
REMARK  122  A    between atoms: _340  and  _341
REMARK  123  A    between atoms: _340  and  _343
REMARK  124  A    between atoms: _343  and  _344
REMARK  125  A    between atoms: _348  and  ZN_456
REMARK  126  A    between atoms: _349  and  _351
REMARK  127  A    between atoms: _351  and  _352
REMARK  128  A    between atoms: _351  and  _354
REMARK  129  A    between atoms: _354  and  _355
REMARK  130  A    between atoms: _358  and  _360
REMARK  131  A    between atoms: _360  and  _361
REMARK  132  A    between atoms: _363  and  _365
REMARK  133  A    between atoms: _365  and  _366
REMARK  134  A    between atoms: _365  and  _368
REMARK  135  A    between atoms: _368  and  _369
REMARK  136  A    between atoms: _372  and  _374
REMARK  137  A    between atoms: _374  and  _375
REMARK  138  A    between atoms: _374  and  _377
REMARK  139  A    between atoms: _377  and  _378
REMARK  140  A    between atoms: _381  and  _383
REMARK  141  A    between atoms: _383  and  _384
REMARK  142  A    between atoms: _387  and  _389
REMARK  143  A    between atoms: _389  and  _390
REMARK  144  A    between atoms: _389  and  _392
REMARK  145  A    between atoms: _392  and  _393
REMARK  146  A    between atoms: _398  and  _399
REMARK  147  A    between atoms: _401  and  _403
REMARK  148  A    between atoms: _403  and  _404
REMARK  149  A    between atoms: _403  and  _406
REMARK  150  A    between atoms: _406  and  _407
REMARK  151  A    between atoms: _410  and  _412
REMARK  152  A    between atoms: _412  and  _413
REMARK  153  A    between atoms: _412  and  _415
REMARK  154  A    between atoms: _415  and  _416
REMARK  155  A    between atoms: _416  and  _417
REMARK  156  A    between atoms: _420  and  _422
REMARK  157  A    between atoms: _422  and  _423
REMARK  158  A    between atoms: _422  and  _425
REMARK  159  A    between atoms: _425  and  _426
REMARK  160  A    between atoms: _426  and  _427
REMARK  161  A    between atoms: _427  and  _428
REMARK  162  A    between atoms: _437  and  _439
REMARK  163  A    between atoms: _439  and  _440
REMARK  164  A    between atoms: _442  and  _444
REMARK  165  A    between atoms: _444  and  _445
REMARK  166  A    between atoms: _444  and  _447
REMARK  167  A    between atoms: _447  and  _448
REMARK  168  A    between atoms: _451  and  _453
REMARK  169  A    between atoms: _453  and  _454
REMARK                            x       y       z     vdW  Elec       q    Type
REMARK                         _______ _______ _______ _____ _____    ______ ____
ROOT
ATOM      1  CB  HIS A   1      23.138  56.816  14.256  0.00  0.00    +0.072 C 
ENDROOT
BRANCH   1   2
ATOM      2  CG  HIS A   1      22.131  57.923  14.352  0.00  0.00    +0.082 A 
ATOM      3  ND1 HIS A   1      22.338  59.171  14.825  0.00  0.00    -0.227 NA
ATOM      4  CE1 HIS A   1      21.132  59.834  14.798  0.00  0.00    +0.199 A 
ATOM      5  NE2 HIS A   1      20.202  59.031  14.315  0.00  0.00    -0.221 NA
ATOM      6  CD2 HIS A   1      20.763  57.852  14.042  0.00  0.00    +0.115 A 
ENDBRANCH   1   2
BRANCH   1   7
ATOM      7  CA  HIS A   1      23.248  55.991  15.562  0.00  0.00    +0.139 C 
BRANCH   7   8
ATOM      8  N   HIS A   1      23.616  56.846  16.708  0.00  0.00    -0.239 NA
ATOM      9  H   HIS A   1      24.513  57.372  16.689  0.00  0.00    +0.142 HD
ENDBRANCH   7   8
BRANCH   7  10
ATOM     10  C   HIS A   1      24.186  54.816  15.399  0.00  0.00    +0.224 C 
ATOM     11  O   HIS A   1      24.223  54.203  14.319  0.00  0.00    -0.287 OA
ENDBRANCH   7  10
ENDBRANCH   1   7
TORSDOF 4
REMARK  Name = ../refined-set-2016/2f7p/2f7p_pocket.pdb
REMARK  169 active torsions:
REMARK  status: ('A' for Active; 'I' for Inactive)
REMARK    1  A    between atoms: _1  and  _3
REMARK    2  A    between atoms: _14  and  _17
REMARK    3  A    between atoms: _17  and  _18
REMARK    4  A    between atoms: _25  and  _26
REMARK    5  A    between atoms: _33  and  _34
REMARK    6  A    between atoms: _39  and  _41
REMARK    7  A    between atoms: _41  and  _42
REMARK    8  A    between atoms: _44  and  _46
REMARK    9  A    between atoms: _46  and  _47
REMARK   10  A    between atoms: _46  and  _49
REMARK   11  A    between atoms: _49  and  _50
REMARK   12  A    between atoms: _60  and  _62
REMARK   13  A    between atoms: _62  and  _63
REMARK   14  A    between atoms: _62  and  _65
REMARK   15  A    between atoms: _65  and  _66
REMARK   16  A    between atoms: _69  and  _71
REMARK   17  A    between atoms: _71  and  _72
REMARK   18  A    between atoms: _71  and  _74
REMARK   19  A    between atoms: _74  and  _75
REMARK   20  A    between atoms: _80  and  _81
REMARK   21  A    between atoms: _83  and  _85
REMARK   22  A    between atoms: _85  and  _86
REMARK   23  A    between atoms: _85  and  _88
REMARK   24  A    between atoms: _88  and  _89
REMARK   25  A    between atoms: _89  and  _90
REMARK   26  A    between atoms: _93  and  _95
REMARK   27  A    between atoms: _95  and  _96
REMARK   28  A    between atoms: _95  and  _98
REMARK   29  A    between atoms: _98  and  _99
REMARK   30  A    between atoms: _99  and  _100
REMARK   31  A    between atoms: _102  and  _104
REMARK   32  A    between atoms: _104  and  _105
REMARK   33  A    between atoms: _104  and  _107
REMARK   34  A    between atoms: _107  and  _108
REMARK   35  A    between atoms: _111  and  _113
REMARK   36  A    between atoms: _113  and  _114
REMARK   37  A    between atoms: _113  and  _116
REMARK   38  A    between atoms: _116  and  _117
REMARK   39  A    between atoms: _117  and  _119
REMARK   40  A    between atoms: _119  and  ZN_456
REMARK   41  A    between atoms: _121  and  _122
REMARK   42  A    between atoms: _127  and  _129
REMARK   43  A    between atoms: _129  and  _130
REMARK   44  A    between atoms: _129  and  _132
REMARK   45  A    between atoms: _132  and  _133
REMARK   46  A    between atoms: _139  and  _141
REMARK   47  A    between atoms: _141  and  _142
REMARK   48  A    between atoms: _141  and  _144
REMARK   49  A    between atoms: _144  and  _145
REMARK   50  A    between atoms: _145  and  _146
REMARK   51  A    between atoms: _151  and  _153
REMARK   52  A    between atoms: _153  and  _154
REMARK   53  A    between atoms: _153  and  _156
REMARK   54  A    between atoms: _156  and  _157
REMARK   55  A    between atoms: _157  and  _158
REMARK   56  A    between atoms: _158  and  _159
REMARK   57  A    between atoms: _168  and  _170
REMARK   58  A    between atoms: _170  and  _171
REMARK   59  A    between atoms: _170  and  _173
REMARK   60  A    between atoms: _173  and  _174
REMARK   61  A    between atoms: _179  and  _180
REMARK   62  A    between atoms: _182  and  _184
REMARK   63  A    between atoms: _184  and  _185
REMARK   64  A    between atoms: _184  and  _187
REMARK   65  A    between atoms: _187  and  _188
REMARK   66  A    between atoms: _190  and  _192
REMARK   67  A    between atoms: _192  and  _193
REMARK   68  A    between atoms: _192  and  _195
REMARK   69  A    between atoms: _195  and  _196
REMARK   70  A    between atoms: _201  and  _202
REMARK   71  A    between atoms: _204  and  _206
REMARK   72  A    between atoms: _206  and  _207
REMARK   73  A    between atoms: _206  and  _209
REMARK   74  A    between atoms: _209  and  _210
REMARK   75  A    between atoms: _213  and  _215
REMARK   76  A    between atoms: _215  and  _216
REMARK   77  A    between atoms: _215  and  _218
REMARK   78  A    between atoms: _218  and  _219
REMARK   79  A    between atoms: _222  and  _224
REMARK   80  A    between atoms: _224  and  _225
REMARK   81  A    between atoms: _224  and  _227
REMARK   82  A    between atoms: _227  and  _228
REMARK   83  A    between atoms: _233  and  _235
REMARK   84  A    between atoms: _235  and  _236
REMARK   85  A    between atoms: _235  and  _238
REMARK   86  A    between atoms: _238  and  _239
REMARK   87  A    between atoms: _239  and  _240
REMARK   88  A    between atoms: _240  and  _241
REMARK   89  A    between atoms: _250  and  _252
REMARK   90  A    between atoms: _252  and  _253
REMARK   91  A    between atoms: _255  and  _257
REMARK   92  A    between atoms: _257  and  _258
REMARK   93  A    between atoms: _257  and  _260
REMARK   94  A    between atoms: _260  and  _261
REMARK   95  A    between atoms: _264  and  _266
REMARK   96  A    between atoms: _266  and  _267
REMARK   97  A    between atoms: _266  and  _269
REMARK   98  A    between atoms: _269  and  _270
REMARK   99  A    between atoms: _273  and  _275
REMARK  100  A    between atoms: _275  and  _276
REMARK  101  A    between atoms: _275  and  _278
REMARK  102  A    between atoms: _278  and  _279
REMARK  103  A    between atoms: _285  and  _287
REMARK  104  A    between atoms: _287  and  _288
REMARK  105  A    between atoms: _287  and  _290
REMARK  106  A    between atoms: _290  and  _291
REMARK  107  A    between atoms: _291  and  _292
REMARK  108  A    between atoms: _292  and  _293
REMARK  109  A    between atoms: _302  and  _304
REMARK  110  A    between atoms: _304  and  _305
REMARK  111  A    between atoms: _304  and  _307
REMARK  112  A    between atoms: _307  and  _308
REMARK  113  A    between atoms: _311  and  _313
REMARK  114  A    between atoms: _313  and  _314
REMARK  115  A    between atoms: _313  and  _316
REMARK  116  A    between atoms: _316  and  _317
REMARK  117  A    between atoms: _327  and  _329
REMARK  118  A    between atoms: _329  and  _330
REMARK  119  A    between atoms: _329  and  _332
REMARK  120  A    between atoms: _332  and  _333
REMARK  121  A    between atoms: _338  and  _340
REMARK  122  A    between atoms: _340  and  _341
REMARK  123  A    between atoms: _340  and  _343
REMARK  124  A    between atoms: _343  and  _344
REMARK  125  A    between atoms: _348  and  ZN_456
REMARK  126  A    between atoms: _349  and  _351
REMARK  127  A    between atoms: _351  and  _352
REMARK  128  A    between atoms: _351  and  _354
REMARK  129  A    between atoms: _354  and  _355
REMARK  130  A    between atoms: _358  and  _360
REMARK  131  A    between atoms: _360  and  _361
REMARK  132  A    between atoms: _363  and  _365
REMARK  133  A    between atoms: _365  and  _366
REMARK  134  A    between atoms: _365  and  _368
REMARK  135  A    between atoms: _368  and  _369
REMARK  136  A    between atoms: _372  and  _374
REMARK  137  A    between atoms: _374  and  _375
REMARK  138  A    between atoms: _374  and  _377
REMARK  139  A    between atoms: _377  and  _378
REMARK  140  A    between atoms: _381  and  _383
REMARK  141  A    between atoms: _383  and  _384
REMARK  142  A    between atoms: _387  and  _389
REMARK  143  A    between atoms: _389  and  _390
REMARK  144  A    between atoms: _389  and  _392
REMARK  145  A    between atoms: _392  and  _393
REMARK  146  A    between atoms: _398  and  _399
REMARK  147  A    between atoms: _401  and  _403
REMARK  148  A    between atoms: _403  and  _404
REMARK  149  A    between atoms: _403  and  _406
REMARK  150  A    between atoms: _406  and  _407
REMARK  151  A    between atoms: _410  and  _412
REMARK  152  A    between atoms: _412  and  _413
REMARK  153  A    between atoms: _412  and  _415
REMARK  154  A    between atoms: _415  and  _416
REMARK  155  A    between atoms: _416  and  _417
REMARK  156  A    between atoms: _420  and  _422
REMARK  157  A    between atoms: _422  and  _423
REMARK  158  A    between atoms: _422  and  _425
REMARK  159  A    between atoms: _425  and  _426
REMARK  160  A    between atoms: _426  and  _427
REMARK  161  A    between atoms: _427  and  _428
REMARK  162  A    between atoms: _437  and  _439
REMARK  163  A    between atoms: _439  and  _440
REMARK  164  A    between atoms: _442  and  _444
REMARK  165  A    between atoms: _444  and  _445
REMARK  166  A    between atoms: _444  and  _447
REMARK  167  A    between atoms: _447  and  _448
REMARK  168  A    between atoms: _451  and  _453
REMARK  169  A    between atoms: _453  and  _454
REMARK                            x       y       z     vdW  Elec       q    Type
REMARK                         _______ _______ _______ _____ _____    ______ ____
ROOT
ATOM      1  NE  ARG A   1      25.572  62.896  22.068  0.00  0.00    -0.265 N 
ATOM      2  HE  ARG A   1      26.336  62.194  21.994  0.00  0.00    +0.259 HD
ATOM      3  CZ  ARG A   1      25.157  63.473  20.941  0.00  0.00    +0.342 C 
ATOM      4  NH2 ARG A   1      24.204  64.412  20.943  0.00  0.00    -0.292 N 
ATOM      5 HH21 ARG A   1      23.768  64.708  21.839  0.00  0.00    +0.255 HD
ATOM      6 HH22 ARG A   1      23.899  64.846  20.048  0.00  0.00    +0.255 HD
ATOM      7  NH1 ARG A   1      25.632  63.042  19.771  0.00  0.00    -0.292 N 
ATOM      8 HH11 ARG A   1      26.320  62.262  19.744  0.00  0.00    +0.255 HD
ATOM      9 HH12 ARG A   1      25.314  63.486  18.886  0.00  0.00    +0.255 HD
ENDROOT
BRANCH   1  10
ATOM     10  CD  ARG A   1      25.032  63.176  23.414  0.00  0.00    +0.174 C 
BRANCH  10  11
ATOM     11  CG  ARG A   1      26.007  63.675  24.435  0.00  0.00    +0.045 C 
BRANCH  11  12
ATOM     12  CB  ARG A   1      25.354  63.809  25.803  0.00  0.00    +0.029 C 
BRANCH  12  13
ATOM     13  CA  ARG A   1      26.296  64.441  26.828  0.00  0.00    +0.133 C 
BRANCH  13  14
ATOM     14  N   ARG A   1      27.472  63.591  26.980  0.00  0.00    -0.239 NA
ATOM     15  H   ARG A   1      27.348  62.566  27.108  0.00  0.00    +0.142 HD
ENDBRANCH  13  14
BRANCH  13  16
ATOM     16  C   ARG A   1      25.494  64.758  28.119  0.00  0.00    +0.224 C 
ATOM     17  O   ARG A   1      24.307  65.050  28.029  0.00  0.00    -0.287 OA
ENDBRANCH  13  16
ENDBRANCH  12  13
ENDBRANCH  11  12
ENDBRANCH  10  11
ENDBRANCH   1  10
TORSDOF 6
REMARK  Name = ../refined-set-2016/2f7p/2f7p_pocket.pdb
REMARK  169 active torsions:
REMARK  status: ('A' for Active; 'I' for Inactive)
REMARK    1  A    between atoms: _1  and  _3
REMARK    2  A    between atoms: _14  and  _17
REMARK    3  A    between atoms: _17  and  _18
REMARK    4  A    between atoms: _25  and  _26
REMARK    5  A    between atoms: _33  and  _34
REMARK    6  A    between atoms: _39  and  _41
REMARK    7  A    between atoms: _41  and  _42
REMARK    8  A    between atoms: _44  and  _46
REMARK    9  A    between atoms: _46  and  _47
REMARK   10  A    between atoms: _46  and  _49
REMARK   11  A    between atoms: _49  and  _50
REMARK   12  A    between atoms: _60  and  _62
REMARK   13  A    between atoms: _62  and  _63
REMARK   14  A    between atoms: _62  and  _65
REMARK   15  A    between atoms: _65  and  _66
REMARK   16  A    between atoms: _69  and  _71
REMARK   17  A    between atoms: _71  and  _72
REMARK   18  A    between atoms: _71  and  _74
REMARK   19  A    between atoms: _74  and  _75
REMARK   20  A    between atoms: _80  and  _81
REMARK   21  A    between atoms: _83  and  _85
REMARK   22  A    between atoms: _85  and  _86
REMARK   23  A    between atoms: _85  and  _88
REMARK   24  A    between atoms: _88  and  _89
REMARK   25  A    between atoms: _89  and  _90
REMARK   26  A    between atoms: _93  and  _95
REMARK   27  A    between atoms: _95  and  _96
REMARK   28  A    between atoms: _95  and  _98
REMARK   29  A    between atoms: _98  and  _99
REMARK   30  A    between atoms: _99  and  _100
REMARK   31  A    between atoms: _102  and  _104
REMARK   32  A    between atoms: _104  and  _105
REMARK   33  A    between atoms: _104  and  _107
REMARK   34  A    between atoms: _107  and  _108
REMARK   35  A    between atoms: _111  and  _113
REMARK   36  A    between atoms: _113  and  _114
REMARK   37  A    between atoms: _113  and  _116
REMARK   38  A    between atoms: _116  and  _117
REMARK   39  A    between atoms: _117  and  _119
REMARK   40  A    between atoms: _119  and  ZN_456
REMARK   41  A    between atoms: _121  and  _122
REMARK   42  A    between atoms: _127  and  _129
REMARK   43  A    between atoms: _129  and  _130
REMARK   44  A    between atoms: _129  and  _132
REMARK   45  A    between atoms: _132  and  _133
REMARK   46  A    between atoms: _139  and  _141
REMARK   47  A    between atoms: _141  and  _142
REMARK   48  A    between atoms: _141  and  _144
REMARK   49  A    between atoms: _144  and  _145
REMARK   50  A    between atoms: _145  and  _146
REMARK   51  A    between atoms: _151  and  _153
REMARK   52  A    between atoms: _153  and  _154
REMARK   53  A    between atoms: _153  and  _156
REMARK   54  A    between atoms: _156  and  _157
REMARK   55  A    between atoms: _157  and  _158
REMARK   56  A    between atoms: _158  and  _159
REMARK   57  A    between atoms: _168  and  _170
REMARK   58  A    between atoms: _170  and  _171
REMARK   59  A    between atoms: _170  and  _173
REMARK   60  A    between atoms: _173  and  _174
REMARK   61  A    between atoms: _179  and  _180
REMARK   62  A    between atoms: _182  and  _184
REMARK   63  A    between atoms: _184  and  _185
REMARK   64  A    between atoms: _184  and  _187
REMARK   65  A    between atoms: _187  and  _188
REMARK   66  A    between atoms: _190  and  _192
REMARK   67  A    between atoms: _192  and  _193
REMARK   68  A    between atoms: _192  and  _195
REMARK   69  A    between atoms: _195  and  _196
REMARK   70  A    between atoms: _201  and  _202
REMARK   71  A    between atoms: _204  and  _206
REMARK   72  A    between atoms: _206  and  _207
REMARK   73  A    between atoms: _206  and  _209
REMARK   74  A    between atoms: _209  and  _210
REMARK   75  A    between atoms: _213  and  _215
REMARK   76  A    between atoms: _215  and  _216
REMARK   77  A    between atoms: _215  and  _218
REMARK   78  A    between atoms: _218  and  _219
REMARK   79  A    between atoms: _222  and  _224
REMARK   80  A    between atoms: _224  and  _225
REMARK   81  A    between atoms: _224  and  _227
REMARK   82  A    between atoms: _227  and  _228
REMARK   83  A    between atoms: _233  and  _235
REMARK   84  A    between atoms: _235  and  _236
REMARK   85  A    between atoms: _235  and  _238
REMARK   86  A    between atoms: _238  and  _239
REMARK   87  A    between atoms: _239  and  _240
REMARK   88  A    between atoms: _240  and  _241
REMARK   89  A    between atoms: _250  and  _252
REMARK   90  A    between atoms: _252  and  _253
REMARK   91  A    between atoms: _255  and  _257
REMARK   92  A    between atoms: _257  and  _258
REMARK   93  A    between atoms: _257  and  _260
REMARK   94  A    between atoms: _260  and  _261
REMARK   95  A    between atoms: _264  and  _266
REMARK   96  A    between atoms: _266  and  _267
REMARK   97  A    between atoms: _266  and  _269
REMARK   98  A    between atoms: _269  and  _270
REMARK   99  A    between atoms: _273  and  _275
REMARK  100  A    between atoms: _275  and  _276
REMARK  101  A    between atoms: _275  and  _278
REMARK  102  A    between atoms: _278  and  _279
REMARK  103  A    between atoms: _285  and  _287
REMARK  104  A    between atoms: _287  and  _288
REMARK  105  A    between atoms: _287  and  _290
REMARK  106  A    between atoms: _290  and  _291
REMARK  107  A    between atoms: _291  and  _292
REMARK  108  A    between atoms: _292  and  _293
REMARK  109  A    between atoms: _302  and  _304
REMARK  110  A    between atoms: _304  and  _305
REMARK  111  A    between atoms: _304  and  _307
REMARK  112  A    between atoms: _307  and  _308
REMARK  113  A    between atoms: _311  and  _313
REMARK  114  A    between atoms: _313  and  _314
REMARK  115  A    between atoms: _313  and  _316
REMARK  116  A    between atoms: _316  and  _317
REMARK  117  A    between atoms: _327  and  _329
REMARK  118  A    between atoms: _329  and  _330
REMARK  119  A    between atoms: _329  and  _332
REMARK  120  A    between atoms: _332  and  _333
REMARK  121  A    between atoms: _338  and  _340
REMARK  122  A    between atoms: _340  and  _341
REMARK  123  A    between atoms: _340  and  _343
REMARK  124  A    between atoms: _343  and  _344
REMARK  125  A    between atoms: _348  and  ZN_456
REMARK  126  A    between atoms: _349  and  _351
REMARK  127  A    between atoms: _351  and  _352
REMARK  128  A    between atoms: _351  and  _354
REMARK  129  A    between atoms: _354  and  _355
REMARK  130  A    between atoms: _358  and  _360
REMARK  131  A    between atoms: _360  and  _361
REMARK  132  A    between atoms: _363  and  _365
REMARK  133  A    between atoms: _365  and  _366
REMARK  134  A    between atoms: _365  and  _368
REMARK  135  A    between atoms: _368  and  _369
REMARK  136  A    between atoms: _372  and  _374
REMARK  137  A    between atoms: _374  and  _375
REMARK  138  A    between atoms: _374  and  _377
REMARK  139  A    between atoms: _377  and  _378
REMARK  140  A    between atoms: _381  and  _383
REMARK  141  A    between atoms: _383  and  _384
REMARK  142  A    between atoms: _387  and  _389
REMARK  143  A    between atoms: _389  and  _390
REMARK  144  A    between atoms: _389  and  _392
REMARK  145  A    between atoms: _392  and  _393
REMARK  146  A    between atoms: _398  and  _399
REMARK  147  A    between atoms: _401  and  _403
REMARK  148  A    between atoms: _403  and  _404
REMARK  149  A    between atoms: _403  and  _406
REMARK  150  A    between atoms: _406  and  _407
REMARK  151  A    between atoms: _410  and  _412
REMARK  152  A    between atoms: _412  and  _413
REMARK  153  A    between atoms: _412  and  _415
REMARK  154  A    between atoms: _415  and  _416
REMARK  155  A    between atoms: _416  and  _417
REMARK  156  A    between atoms: _420  and  _422
REMARK  157  A    between atoms: _422  and  _423
REMARK  158  A    between atoms: _422  and  _425
REMARK  159  A    between atoms: _425  and  _426
REMARK  160  A    between atoms: _426  and  _427
REMARK  161  A    between atoms: _427  and  _428
REMARK  162  A    between atoms: _437  and  _439
REMARK  163  A    between atoms: _439  and  _440
REMARK  164  A    between atoms: _442  and  _444
REMARK  165  A    between atoms: _444  and  _445
REMARK  166  A    between atoms: _444  and  _447
REMARK  167  A    between atoms: _447  and  _448
REMARK  168  A    between atoms: _451  and  _453
REMARK  169  A    between atoms: _453  and  _454
REMARK                            x       y       z     vdW  Elec       q    Type
REMARK                         _______ _______ _______ _____ _____    ______ ____
ROOT
ATOM      1  CA  PHE A   4      37.031  65.385  17.191  0.00  0.00    +0.153 C 
ENDROOT
BRANCH   1   2
ATOM      2  C   PHE A   4      36.713  65.018  18.641  0.00  0.00    +0.241 C 
ATOM      3  O   PHE A   4      36.928  65.836  19.564  0.00  0.00    -0.273 OA
ATOM      4  N   ARG A   5      36.326  63.758  18.850  0.00  0.00    -0.298 N 
ATOM      5  H   ARG A   5      36.185  63.119  18.042  0.00  0.00    +0.150 HD
BRANCH   4   6
ATOM      6  CA  ARG A   5      36.101  63.275  20.206  0.00  0.00    +0.137 C 
BRANCH   6   7
ATOM      7  C   ARG A   5      37.410  62.831  20.866  0.00  0.00    +0.227 C 
ATOM      8  O   ARG A   5      38.489  62.755  20.254  0.00  0.00    -0.286 OA
ENDBRANCH   6   7
BRANCH   6   9
ATOM      9  CB  ARG A   5      35.138  62.103  20.186  0.00  0.00    +0.031 C 
BRANCH   9  10
ATOM     10  CG  ARG A   5      33.676  62.484  19.970  0.00  0.00    +0.045 C 
BRANCH  10  11
ATOM     11  CD  ARG A   5      33.177  63.452  21.068  0.00  0.00    +0.174 C 
BRANCH  11  12
ATOM     12  NE  ARG A   5      31.728  63.687  20.963  0.00  0.00    -0.265 N 
ATOM     13  CZ  ARG A   5      30.809  62.951  21.621  0.00  0.00    +0.342 C 
ATOM     14  NH2 ARG A   5      31.193  61.915  22.373  0.00  0.00    -0.292 N 
ATOM     15 HH21 ARG A   5      30.483  61.349  22.880  0.00  0.00    +0.255 HD
ATOM     16 HH22 ARG A   5      32.202  61.675  22.452  0.00  0.00    +0.255 HD
ATOM     17  NH1 ARG A   5      29.541  63.338  21.579  0.00  0.00    -0.292 N 
ATOM     18 HH11 ARG A   5      28.813  62.788  22.078  0.00  0.00    +0.255 HD
ATOM     19 HH12 ARG A   5      29.275  64.191  21.047  0.00  0.00    +0.255 HD
ATOM     20  HE  ARG A   5      31.396  64.459  20.351  0.00  0.00    +0.259 HD
ENDBRANCH  11  12
ENDBRANCH  10  11
ENDBRANCH   9  10
ENDBRANCH   6   9
ENDBRANCH   4   6
ENDBRANCH   1   2
BRANCH   1  23
ATOM     21  C   ASP A   3      34.772  64.893  16.406  0.00  0.00    +0.241 C 
ATOM     22  O   ASP A   3      34.243  65.427  17.393  0.00  0.00    -0.273 OA
ATOM     23  N   PHE A   4      36.088  64.809  16.261  0.00  0.00    -0.297 N 
ATOM     24  H   PHE A   4      36.461  64.301  15.433  0.00  0.00    +0.150 HD
BRANCH  21  25
ATOM     25  CA  ASP A   3      33.942  64.277  15.287  0.00  0.00    +0.160 C 
BRANCH  25  28
ATOM     26  C   ASP A   2      33.302  62.191  16.381  0.00  0.00    +0.241 C 
ATOM     27  O   ASP A   2      34.454  61.852  16.585  0.00  0.00    -0.273 OA
ATOM     28  N   ASP A   3      32.949  63.329  15.832  0.00  0.00    -0.297 N 
ATOM     29  H   ASP A   3      31.939  63.571  15.779  0.00  0.00    +0.150 HD
BRANCH  26  30
ATOM     30  CA  ASP A   2      32.117  61.272  16.775  0.00  0.00    +0.160 C 
BRANCH  30  33
ATOM     31  C   GLY A   1      32.104  59.048  17.871  0.00  0.00    +0.240 C 
ATOM     32  O   GLY A   1      30.907  58.818  17.594  0.00  0.00    -0.274 OA
ATOM     33  N   ASP A   2      32.752  60.180  17.511  0.00  0.00    -0.297 N 
ATOM     34  H   ASP A   2      33.754  60.278  17.771  0.00  0.00    +0.150 HD
BRANCH  31  35
ATOM     35  CA  GLY A   1      32.921  58.075  18.678  0.00  0.00    +0.169 C 
BRANCH  35  36
ATOM     36  N   GLY A   1      32.170  56.844  18.984  0.00  0.00    -0.236 NA
ATOM     37  H   GLY A   1      31.183  56.732  18.676  0.00  0.00    +0.142 HD
ENDBRANCH  35  36
ENDBRANCH  31  35
ENDBRANCH  30  33
BRANCH  30  38
ATOM     38  CB  ASP A   2      31.071  61.936  17.743  0.00  0.00    +0.143 C 
BRANCH  38  39
ATOM     39  CG  ASP A   2      30.000  62.763  17.062  0.00  0.00    +0.367 C 
ATOM     40  OD2 ASP A   2      28.955  63.024  17.764  0.00  0.00    -0.246 OA
ATOM     41  OD1 ASP A   2      30.174  63.220  15.899  0.00  0.00    -0.246 OA
ENDBRANCH  38  39
ENDBRANCH  30  38
ENDBRANCH  26  30
ENDBRANCH  25  28
BRANCH  25  42
ATOM     42  CB  ASP A   3      33.218  65.357  14.464  0.00  0.00    +0.143 C 
BRANCH  42  43
ATOM     43  CG  ASP A   3      32.660  64.822  13.144  0.00  0.00    +0.367 C 
ATOM     44  OD2 ASP A   3      32.738  63.602  12.936  0.00  0.00    -0.246 OA
ATOM     45  OD1 ASP A   3      32.207  65.672  12.336  0.00  0.00    -0.246 OA
ENDBRANCH  42  43
ENDBRANCH  25  42
ENDBRANCH  21  25
ENDBRANCH   1  23
BRANCH   1  46
ATOM     46  CB  PHE A   4      37.144  66.914  16.974  0.00  0.00    +0.055 C 
BRANCH  46  47
ATOM     47  CG  PHE A   4      37.749  67.290  15.642  0.00  0.00    -0.020 A 
ATOM     48  CD2 PHE A   4      39.128  67.264  15.440  0.00  0.00    -0.004 A 
ATOM     49  CE2 PHE A   4      39.672  67.636  14.204  0.00  0.00    -0.000 A 
ATOM     50  CZ  PHE A   4      38.867  68.029  13.148  0.00  0.00    -0.000 A 
ATOM     51  CE1 PHE A   4      37.517  68.049  13.315  0.00  0.00    -0.000 A 
ATOM     52  CD1 PHE A   4      36.931  67.684  14.582  0.00  0.00    -0.004 A 
ENDBRANCH  46  47
ENDBRANCH   1  46
TORSDOF 20
REMARK  Name = ../refined-set-2016/2f7p/2f7p_pocket.pdb
REMARK  169 active torsions:
REMARK  status: ('A' for Active; 'I' for Inactive)
REMARK    1  A    between atoms: _1  and  _3
REMARK    2  A    between atoms: _14  and  _17
REMARK    3  A    between atoms: _17  and  _18
REMARK    4  A    between atoms: _25  and  _26
REMARK    5  A    between atoms: _33  and  _34
REMARK    6  A    between atoms: _39  and  _41
REMARK    7  A    between atoms: _41  and  _42
REMARK    8  A    between atoms: _44  and  _46
REMARK    9  A    between atoms: _46  and  _47
REMARK   10  A    between atoms: _46  and  _49
REMARK   11  A    between atoms: _49  and  _50
REMARK   12  A    between atoms: _60  and  _62
REMARK   13  A    between atoms: _62  and  _63
REMARK   14  A    between atoms: _62  and  _65
REMARK   15  A    between atoms: _65  and  _66
REMARK   16  A    between atoms: _69  and  _71
REMARK   17  A    between atoms: _71  and  _72
REMARK   18  A    between atoms: _71  and  _74
REMARK   19  A    between atoms: _74  and  _75
REMARK   20  A    between atoms: _80  and  _81
REMARK   21  A    between atoms: _83  and  _85
REMARK   22  A    between atoms: _85  and  _86
REMARK   23  A    between atoms: _85  and  _88
REMARK   24  A    between atoms: _88  and  _89
REMARK   25  A    between atoms: _89  and  _90
REMARK   26  A    between atoms: _93  and  _95
REMARK   27  A    between atoms: _95  and  _96
REMARK   28  A    between atoms: _95  and  _98
REMARK   29  A    between atoms: _98  and  _99
REMARK   30  A    between atoms: _99  and  _100
REMARK   31  A    between atoms: _102  and  _104
REMARK   32  A    between atoms: _104  and  _105
REMARK   33  A    between atoms: _104  and  _107
REMARK   34  A    between atoms: _107  and  _108
REMARK   35  A    between atoms: _111  and  _113
REMARK   36  A    between atoms: _113  and  _114
REMARK   37  A    between atoms: _113  and  _116
REMARK   38  A    between atoms: _116  and  _117
REMARK   39  A    between atoms: _117  and  _119
REMARK   40  A    between atoms: _119  and  ZN_456
REMARK   41  A    between atoms: _121  and  _122
REMARK   42  A    between atoms: _127  and  _129
REMARK   43  A    between atoms: _129  and  _130
REMARK   44  A    between atoms: _129  and  _132
REMARK   45  A    between atoms: _132  and  _133
REMARK   46  A    between atoms: _139  and  _141
REMARK   47  A    between atoms: _141  and  _142
REMARK   48  A    between atoms: _141  and  _144
REMARK   49  A    between atoms: _144  and  _145
REMARK   50  A    between atoms: _145  and  _146
REMARK   51  A    between atoms: _151  and  _153
REMARK   52  A    between atoms: _153  and  _154
REMARK   53  A    between atoms: _153  and  _156
REMARK   54  A    between atoms: _156  and  _157
REMARK   55  A    between atoms: _157  and  _158
REMARK   56  A    between atoms: _158  and  _159
REMARK   57  A    between atoms: _168  and  _170
REMARK   58  A    between atoms: _170  and  _171
REMARK   59  A    between atoms: _170  and  _173
REMARK   60  A    between atoms: _173  and  _174
REMARK   61  A    between atoms: _179  and  _180
REMARK   62  A    between atoms: _182  and  _184
REMARK   63  A    between atoms: _184  and  _185
REMARK   64  A    between atoms: _184  and  _187
REMARK   65  A    between atoms: _187  and  _188
REMARK   66  A    between atoms: _190  and  _192
REMARK   67  A    between atoms: _192  and  _193
REMARK   68  A    between atoms: _192  and  _195
REMARK   69  A    between atoms: _195  and  _196
REMARK   70  A    between atoms: _201  and  _202
REMARK   71  A    between atoms: _204  and  _206
REMARK   72  A    between atoms: _206  and  _207
REMARK   73  A    between atoms: _206  and  _209
REMARK   74  A    between atoms: _209  and  _210
REMARK   75  A    between atoms: _213  and  _215
REMARK   76  A    between atoms: _215  and  _216
REMARK   77  A    between atoms: _215  and  _218
REMARK   78  A    between atoms: _218  and  _219
REMARK   79  A    between atoms: _222  and  _224
REMARK   80  A    between atoms: _224  and  _225
REMARK   81  A    between atoms: _224  and  _227
REMARK   82  A    between atoms: _227  and  _228
REMARK   83  A    between atoms: _233  and  _235
REMARK   84  A    between atoms: _235  and  _236
REMARK   85  A    between atoms: _235  and  _238
REMARK   86  A    between atoms: _238  and  _239
REMARK   87  A    between atoms: _239  and  _240
REMARK   88  A    between atoms: _240  and  _241
REMARK   89  A    between atoms: _250  and  _252
REMARK   90  A    between atoms: _252  and  _253
REMARK   91  A    between atoms: _255  and  _257
REMARK   92  A    between atoms: _257  and  _258
REMARK   93  A    between atoms: _257  and  _260
REMARK   94  A    between atoms: _260  and  _261
REMARK   95  A    between atoms: _264  and  _266
REMARK   96  A    between atoms: _266  and  _267
REMARK   97  A    between atoms: _266  and  _269
REMARK   98  A    between atoms: _269  and  _270
REMARK   99  A    between atoms: _273  and  _275
REMARK  100  A    between atoms: _275  and  _276
REMARK  101  A    between atoms: _275  and  _278
REMARK  102  A    between atoms: _278  and  _279
REMARK  103  A    between atoms: _285  and  _287
REMARK  104  A    between atoms: _287  and  _288
REMARK  105  A    between atoms: _287  and  _290
REMARK  106  A    between atoms: _290  and  _291
REMARK  107  A    between atoms: _291  and  _292
REMARK  108  A    between atoms: _292  and  _293
REMARK  109  A    between atoms: _302  and  _304
REMARK  110  A    between atoms: _304  and  _305
REMARK  111  A    between atoms: _304  and  _307
REMARK  112  A    between atoms: _307  and  _308
REMARK  113  A    between atoms: _311  and  _313
REMARK  114  A    between atoms: _313  and  _314
REMARK  115  A    between atoms: _313  and  _316
REMARK  116  A    between atoms: _316  and  _317
REMARK  117  A    between atoms: _327  and  _329
REMARK  118  A    between atoms: _329  and  _330
REMARK  119  A    between atoms: _329  and  _332
REMARK  120  A    between atoms: _332  and  _333
REMARK  121  A    between atoms: _338  and  _340
REMARK  122  A    between atoms: _340  and  _341
REMARK  123  A    between atoms: _340  and  _343
REMARK  124  A    between atoms: _343  and  _344
REMARK  125  A    between atoms: _348  and  ZN_456
REMARK  126  A    between atoms: _349  and  _351
REMARK  127  A    between atoms: _351  and  _352
REMARK  128  A    between atoms: _351  and  _354
REMARK  129  A    between atoms: _354  and  _355
REMARK  130  A    between atoms: _358  and  _360
REMARK  131  A    between atoms: _360  and  _361
REMARK  132  A    between atoms: _363  and  _365
REMARK  133  A    between atoms: _365  and  _366
REMARK  134  A    between atoms: _365  and  _368
REMARK  135  A    between atoms: _368  and  _369
REMARK  136  A    between atoms: _372  and  _374
REMARK  137  A    between atoms: _374  and  _375
REMARK  138  A    between atoms: _374  and  _377
REMARK  139  A    between atoms: _377  and  _378
REMARK  140  A    between atoms: _381  and  _383
REMARK  141  A    between atoms: _383  and  _384
REMARK  142  A    between atoms: _387  and  _389
REMARK  143  A    between atoms: _389  and  _390
REMARK  144  A    between atoms: _389  and  _392
REMARK  145  A    between atoms: _392  and  _393
REMARK  146  A    between atoms: _398  and  _399
REMARK  147  A    between atoms: _401  and  _403
REMARK  148  A    between atoms: _403  and  _404
REMARK  149  A    between atoms: _403  and  _406
REMARK  150  A    between atoms: _406  and  _407
REMARK  151  A    between atoms: _410  and  _412
REMARK  152  A    between atoms: _412  and  _413
REMARK  153  A    between atoms: _412  and  _415
REMARK  154  A    between atoms: _415  and  _416
REMARK  155  A    between atoms: _416  and  _417
REMARK  156  A    between atoms: _420  and  _422
REMARK  157  A    between atoms: _422  and  _423
REMARK  158  A    between atoms: _422  and  _425
REMARK  159  A    between atoms: _425  and  _426
REMARK  160  A    between atoms: _426  and  _427
REMARK  161  A    between atoms: _427  and  _428
REMARK  162  A    between atoms: _437  and  _439
REMARK  163  A    between atoms: _439  and  _440
REMARK  164  A    between atoms: _442  and  _444
REMARK  165  A    between atoms: _444  and  _445
REMARK  166  A    between atoms: _444  and  _447
REMARK  167  A    between atoms: _447  and  _448
REMARK  168  A    between atoms: _451  and  _453
REMARK  169  A    between atoms: _453  and  _454
REMARK                            x       y       z     vdW  Elec       q    Type
REMARK                         _______ _______ _______ _____ _____    ______ ____
ROOT
ATOM      1  CA  ASP A   1      20.890  60.973   3.921  0.00  0.00    +0.144 C 
ENDROOT
BRANCH   1   2
ATOM      2  N   ASP A   1      20.959  61.307   2.509  0.00  0.00    -0.239 NA
ATOM      3  H   ASP A   1      21.089  62.296   2.214  0.00  0.00    +0.142 HD
ENDBRANCH   1   2
BRANCH   1   4
ATOM      4  C   ASP A   1      19.452  60.971   4.439  0.00  0.00    +0.225 C 
ATOM      5  O   ASP A   1      19.172  60.290   5.447  0.00  0.00    -0.287 OA
ENDBRANCH   1   4
BRANCH   1   6
ATOM      6  CB  ASP A   1      21.757  61.893   4.814  0.00  0.00    +0.139 C 
BRANCH   6   7
ATOM      7  CG  ASP A   1      21.441  63.358   4.739  0.00  0.00    +0.367 C 
ATOM      8  OD2 ASP A   1      21.896  64.062   5.693  0.00  0.00    -0.246 OA
ATOM      9  OD1 ASP A   1      20.881  63.890   3.768  0.00  0.00    -0.246 OA
ENDBRANCH   6   7
ENDBRANCH   1   6
TORSDOF 4
REMARK  Name = ../refined-set-2016/2f7p/2f7p_pocket.pdb
REMARK  169 active torsions:
REMARK  status: ('A' for Active; 'I' for Inactive)
REMARK    1  A    between atoms: _1  and  _3
REMARK    2  A    between atoms: _14  and  _17
REMARK    3  A    between atoms: _17  and  _18
REMARK    4  A    between atoms: _25  and  _26
REMARK    5  A    between atoms: _33  and  _34
REMARK    6  A    between atoms: _39  and  _41
REMARK    7  A    between atoms: _41  and  _42
REMARK    8  A    between atoms: _44  and  _46
REMARK    9  A    between atoms: _46  and  _47
REMARK   10  A    between atoms: _46  and  _49
REMARK   11  A    between atoms: _49  and  _50
REMARK   12  A    between atoms: _60  and  _62
REMARK   13  A    between atoms: _62  and  _63
REMARK   14  A    between atoms: _62  and  _65
REMARK   15  A    between atoms: _65  and  _66
REMARK   16  A    between atoms: _69  and  _71
REMARK   17  A    between atoms: _71  and  _72
REMARK   18  A    between atoms: _71  and  _74
REMARK   19  A    between atoms: _74  and  _75
REMARK   20  A    between atoms: _80  and  _81
REMARK   21  A    between atoms: _83  and  _85
REMARK   22  A    between atoms: _85  and  _86
REMARK   23  A    between atoms: _85  and  _88
REMARK   24  A    between atoms: _88  and  _89
REMARK   25  A    between atoms: _89  and  _90
REMARK   26  A    between atoms: _93  and  _95
REMARK   27  A    between atoms: _95  and  _96
REMARK   28  A    between atoms: _95  and  _98
REMARK   29  A    between atoms: _98  and  _99
REMARK   30  A    between atoms: _99  and  _100
REMARK   31  A    between atoms: _102  and  _104
REMARK   32  A    between atoms: _104  and  _105
REMARK   33  A    between atoms: _104  and  _107
REMARK   34  A    between atoms: _107  and  _108
REMARK   35  A    between atoms: _111  and  _113
REMARK   36  A    between atoms: _113  and  _114
REMARK   37  A    between atoms: _113  and  _116
REMARK   38  A    between atoms: _116  and  _117
REMARK   39  A    between atoms: _117  and  _119
REMARK   40  A    between atoms: _119  and  ZN_456
REMARK   41  A    between atoms: _121  and  _122
REMARK   42  A    between atoms: _127  and  _129
REMARK   43  A    between atoms: _129  and  _130
REMARK   44  A    between atoms: _129  and  _132
REMARK   45  A    between atoms: _132  and  _133
REMARK   46  A    between atoms: _139  and  _141
REMARK   47  A    between atoms: _141  and  _142
REMARK   48  A    between atoms: _141  and  _144
REMARK   49  A    between atoms: _144  and  _145
REMARK   50  A    between atoms: _145  and  _146
REMARK   51  A    between atoms: _151  and  _153
REMARK   52  A    between atoms: _153  and  _154
REMARK   53  A    between atoms: _153  and  _156
REMARK   54  A    between atoms: _156  and  _157
REMARK   55  A    between atoms: _157  and  _158
REMARK   56  A    between atoms: _158  and  _159
REMARK   57  A    between atoms: _168  and  _170
REMARK   58  A    between atoms: _170  and  _171
REMARK   59  A    between atoms: _170  and  _173
REMARK   60  A    between atoms: _173  and  _174
REMARK   61  A    between atoms: _179  and  _180
REMARK   62  A    between atoms: _182  and  _184
REMARK   63  A    between atoms: _184  and  _185
REMARK   64  A    between atoms: _184  and  _187
REMARK   65  A    between atoms: _187  and  _188
REMARK   66  A    between atoms: _190  and  _192
REMARK   67  A    between atoms: _192  and  _193
REMARK   68  A    between atoms: _192  and  _195
REMARK   69  A    between atoms: _195  and  _196
REMARK   70  A    between atoms: _201  and  _202
REMARK   71  A    between atoms: _204  and  _206
REMARK   72  A    between atoms: _206  and  _207
REMARK   73  A    between atoms: _206  and  _209
REMARK   74  A    between atoms: _209  and  _210
REMARK   75  A    between atoms: _213  and  _215
REMARK   76  A    between atoms: _215  and  _216
REMARK   77  A    between atoms: _215  and  _218
REMARK   78  A    between atoms: _218  and  _219
REMARK   79  A    between atoms: _222  and  _224
REMARK   80  A    between atoms: _224  and  _225
REMARK   81  A    between atoms: _224  and  _227
REMARK   82  A    between atoms: _227  and  _228
REMARK   83  A    between atoms: _233  and  _235
REMARK   84  A    between atoms: _235  and  _236
REMARK   85  A    between atoms: _235  and  _238
REMARK   86  A    between atoms: _238  and  _239
REMARK   87  A    between atoms: _239  and  _240
REMARK   88  A    between atoms: _240  and  _241
REMARK   89  A    between atoms: _250  and  _252
REMARK   90  A    between atoms: _252  and  _253
REMARK   91  A    between atoms: _255  and  _257
REMARK   92  A    between atoms: _257  and  _258
REMARK   93  A    between atoms: _257  and  _260
REMARK   94  A    between atoms: _260  and  _261
REMARK   95  A    between atoms: _264  and  _266
REMARK   96  A    between atoms: _266  and  _267
REMARK   97  A    between atoms: _266  and  _269
REMARK   98  A    between atoms: _269  and  _270
REMARK   99  A    between atoms: _273  and  _275
REMARK  100  A    between atoms: _275  and  _276
REMARK  101  A    between atoms: _275  and  _278
REMARK  102  A    between atoms: _278  and  _279
REMARK  103  A    between atoms: _285  and  _287
REMARK  104  A    between atoms: _287  and  _288
REMARK  105  A    between atoms: _287  and  _290
REMARK  106  A    between atoms: _290  and  _291
REMARK  107  A    between atoms: _291  and  _292
REMARK  108  A    between atoms: _292  and  _293
REMARK  109  A    between atoms: _302  and  _304
REMARK  110  A    between atoms: _304  and  _305
REMARK  111  A    between atoms: _304  and  _307
REMARK  112  A    between atoms: _307  and  _308
REMARK  113  A    between atoms: _311  and  _313
REMARK  114  A    between atoms: _313  and  _314
REMARK  115  A    between atoms: _313  and  _316
REMARK  116  A    between atoms: _316  and  _317
REMARK  117  A    between atoms: _327  and  _329
REMARK  118  A    between atoms: _329  and  _330
REMARK  119  A    between atoms: _329  and  _332
REMARK  120  A    between atoms: _332  and  _333
REMARK  121  A    between atoms: _338  and  _340
REMARK  122  A    between atoms: _340  and  _341
REMARK  123  A    between atoms: _340  and  _343
REMARK  124  A    between atoms: _343  and  _344
REMARK  125  A    between atoms: _348  and  ZN_456
REMARK  126  A    between atoms: _349  and  _351
REMARK  127  A    between atoms: _351  and  _352
REMARK  128  A    between atoms: _351  and  _354
REMARK  129  A    between atoms: _354  and  _355
REMARK  130  A    between atoms: _358  and  _360
REMARK  131  A    between atoms: _360  and  _361
REMARK  132  A    between atoms: _363  and  _365
REMARK  133  A    between atoms: _365  and  _366
REMARK  134  A    between atoms: _365  and  _368
REMARK  135  A    between atoms: _368  and  _369
REMARK  136  A    between atoms: _372  and  _374
REMARK  137  A    between atoms: _374  and  _375
REMARK  138  A    between atoms: _374  and  _377
REMARK  139  A    between atoms: _377  and  _378
REMARK  140  A    between atoms: _381  and  _383
REMARK  141  A    between atoms: _383  and  _384
REMARK  142  A    between atoms: _387  and  _389
REMARK  143  A    between atoms: _389  and  _390
REMARK  144  A    between atoms: _389  and  _392
REMARK  145  A    between atoms: _392  and  _393
REMARK  146  A    between atoms: _398  and  _399
REMARK  147  A    between atoms: _401  and  _403
REMARK  148  A    between atoms: _403  and  _404
REMARK  149  A    between atoms: _403  and  _406
REMARK  150  A    between atoms: _406  and  _407
REMARK  151  A    between atoms: _410  and  _412
REMARK  152  A    between atoms: _412  and  _413
REMARK  153  A    between atoms: _412  and  _415
REMARK  154  A    between atoms: _415  and  _416
REMARK  155  A    between atoms: _416  and  _417
REMARK  156  A    between atoms: _420  and  _422
REMARK  157  A    between atoms: _422  and  _423
REMARK  158  A    between atoms: _422  and  _425
REMARK  159  A    between atoms: _425  and  _426
REMARK  160  A    between atoms: _426  and  _427
REMARK  161  A    between atoms: _427  and  _428
REMARK  162  A    between atoms: _437  and  _439
REMARK  163  A    between atoms: _439  and  _440
REMARK  164  A    between atoms: _442  and  _444
REMARK  165  A    between atoms: _444  and  _445
REMARK  166  A    between atoms: _444  and  _447
REMARK  167  A    between atoms: _447  and  _448
REMARK  168  A    between atoms: _451  and  _453
REMARK  169  A    between atoms: _453  and  _454
REMARK                            x       y       z     vdW  Elec       q    Type
REMARK                         _______ _______ _______ _____ _____    ______ ____
ROOT
ATOM      1  CG  TRP A   1      24.659  64.427   0.303  0.00  0.00    -0.002 A 
ATOM      2  CD2 TRP A   1      25.350  64.681   1.511  0.00  0.00    +0.013 A 
ATOM      3  CE2 TRP A   1      24.404  64.594   2.575  0.00  0.00    +0.056 A 
ATOM      4  CZ2 TRP A   1      24.749  64.782   3.909  0.00  0.00    +0.017 A 
ATOM      5  CH2 TRP A   1      26.079  65.057   4.173  0.00  0.00    +0.001 A 
ATOM      6  CZ3 TRP A   1      27.050  65.149   3.136  0.00  0.00    +0.000 A 
ATOM      7  NE1 TRP A   1      23.178  64.309   2.020  0.00  0.00    -0.352 N 
ATOM      8  HE1 TRP A   1      22.290  64.195   2.549  0.00  0.00    +0.166 HD
ATOM      9  CE3 TRP A   1      26.703  64.964   1.817  0.00  0.00    +0.001 A 
ATOM     10  CD1 TRP A   1      23.310  64.200   0.671  0.00  0.00    +0.068 A 
ENDROOT
BRANCH   1  11
ATOM     11  CB  TRP A   1      25.277  64.337  -1.087  0.00  0.00    +0.053 C 
BRANCH  11  12
ATOM     12  CA  TRP A   1      24.436  65.036  -2.167  0.00  0.00    +0.137 C 
BRANCH  12  13
ATOM     13  N   TRP A   1      23.155  64.330  -2.306  0.00  0.00    -0.239 NA
ATOM     14  H   TRP A   1      23.135  63.301  -2.159  0.00  0.00    +0.142 HD
ENDBRANCH  12  13
BRANCH  12  15
ATOM     15  C   TRP A   1      25.146  65.109  -3.493  0.00  0.00    +0.224 C 
ATOM     16  O   TRP A   1      26.275  64.630  -3.616  0.00  0.00    -0.287 OA
ENDBRANCH  12  15
ENDBRANCH  11  12
ENDBRANCH   1  11
TORSDOF 4
REMARK  Name = ../refined-set-2016/2f7p/2f7p_pocket.pdb
REMARK  169 active torsions:
REMARK  status: ('A' for Active; 'I' for Inactive)
REMARK    1  A    between atoms: _1  and  _3
REMARK    2  A    between atoms: _14  and  _17
REMARK    3  A    between atoms: _17  and  _18
REMARK    4  A    between atoms: _25  and  _26
REMARK    5  A    between atoms: _33  and  _34
REMARK    6  A    between atoms: _39  and  _41
REMARK    7  A    between atoms: _41  and  _42
REMARK    8  A    between atoms: _44  and  _46
REMARK    9  A    between atoms: _46  and  _47
REMARK   10  A    between atoms: _46  and  _49
REMARK   11  A    between atoms: _49  and  _50
REMARK   12  A    between atoms: _60  and  _62
REMARK   13  A    between atoms: _62  and  _63
REMARK   14  A    between atoms: _62  and  _65
REMARK   15  A    between atoms: _65  and  _66
REMARK   16  A    between atoms: _69  and  _71
REMARK   17  A    between atoms: _71  and  _72
REMARK   18  A    between atoms: _71  and  _74
REMARK   19  A    between atoms: _74  and  _75
REMARK   20  A    between atoms: _80  and  _81
REMARK   21  A    between atoms: _83  and  _85
REMARK   22  A    between atoms: _85  and  _86
REMARK   23  A    between atoms: _85  and  _88
REMARK   24  A    between atoms: _88  and  _89
REMARK   25  A    between atoms: _89  and  _90
REMARK   26  A    between atoms: _93  and  _95
REMARK   27  A    between atoms: _95  and  _96
REMARK   28  A    between atoms: _95  and  _98
REMARK   29  A    between atoms: _98  and  _99
REMARK   30  A    between atoms: _99  and  _100
REMARK   31  A    between atoms: _102  and  _104
REMARK   32  A    between atoms: _104  and  _105
REMARK   33  A    between atoms: _104  and  _107
REMARK   34  A    between atoms: _107  and  _108
REMARK   35  A    between atoms: _111  and  _113
REMARK   36  A    between atoms: _113  and  _114
REMARK   37  A    between atoms: _113  and  _116
REMARK   38  A    between atoms: _116  and  _117
REMARK   39  A    between atoms: _117  and  _119
REMARK   40  A    between atoms: _119  and  ZN_456
REMARK   41  A    between atoms: _121  and  _122
REMARK   42  A    between atoms: _127  and  _129
REMARK   43  A    between atoms: _129  and  _130
REMARK   44  A    between atoms: _129  and  _132
REMARK   45  A    between atoms: _132  and  _133
REMARK   46  A    between atoms: _139  and  _141
REMARK   47  A    between atoms: _141  and  _142
REMARK   48  A    between atoms: _141  and  _144
REMARK   49  A    between atoms: _144  and  _145
REMARK   50  A    between atoms: _145  and  _146
REMARK   51  A    between atoms: _151  and  _153
REMARK   52  A    between atoms: _153  and  _154
REMARK   53  A    between atoms: _153  and  _156
REMARK   54  A    between atoms: _156  and  _157
REMARK   55  A    between atoms: _157  and  _158
REMARK   56  A    between atoms: _158  and  _159
REMARK   57  A    between atoms: _168  and  _170
REMARK   58  A    between atoms: _170  and  _171
REMARK   59  A    between atoms: _170  and  _173
REMARK   60  A    between atoms: _173  and  _174
REMARK   61  A    between atoms: _179  and  _180
REMARK   62  A    between atoms: _182  and  _184
REMARK   63  A    between atoms: _184  and  _185
REMARK   64  A    between atoms: _184  and  _187
REMARK   65  A    between atoms: _187  and  _188
REMARK   66  A    between atoms: _190  and  _192
REMARK   67  A    between atoms: _192  and  _193
REMARK   68  A    between atoms: _192  and  _195
REMARK   69  A    between atoms: _195  and  _196
REMARK   70  A    between atoms: _201  and  _202
REMARK   71  A    between atoms: _204  and  _206
REMARK   72  A    between atoms: _206  and  _207
REMARK   73  A    between atoms: _206  and  _209
REMARK   74  A    between atoms: _209  and  _210
REMARK   75  A    between atoms: _213  and  _215
REMARK   76  A    between atoms: _215  and  _216
REMARK   77  A    between atoms: _215  and  _218
REMARK   78  A    between atoms: _218  and  _219
REMARK   79  A    between atoms: _222  and  _224
REMARK   80  A    between atoms: _224  and  _225
REMARK   81  A    between atoms: _224  and  _227
REMARK   82  A    between atoms: _227  and  _228
REMARK   83  A    between atoms: _233  and  _235
REMARK   84  A    between atoms: _235  and  _236
REMARK   85  A    between atoms: _235  and  _238
REMARK   86  A    between atoms: _238  and  _239
REMARK   87  A    between atoms: _239  and  _240
REMARK   88  A    between atoms: _240  and  _241
REMARK   89  A    between atoms: _250  and  _252
REMARK   90  A    between atoms: _252  and  _253
REMARK   91  A    between atoms: _255  and  _257
REMARK   92  A    between atoms: _257  and  _258
REMARK   93  A    between atoms: _257  and  _260
REMARK   94  A    between atoms: _260  and  _261
REMARK   95  A    between atoms: _264  and  _266
REMARK   96  A    between atoms: _266  and  _267
REMARK   97  A    between atoms: _266  and  _269
REMARK   98  A    between atoms: _269  and  _270
REMARK   99  A    between atoms: _273  and  _275
REMARK  100  A    between atoms: _275  and  _276
REMARK  101  A    between atoms: _275  and  _278
REMARK  102  A    between atoms: _278  and  _279
REMARK  103  A    between atoms: _285  and  _287
REMARK  104  A    between atoms: _287  and  _288
REMARK  105  A    between atoms: _287  and  _290
REMARK  106  A    between atoms: _290  and  _291
REMARK  107  A    between atoms: _291  and  _292
REMARK  108  A    between atoms: _292  and  _293
REMARK  109  A    between atoms: _302  and  _304
REMARK  110  A    between atoms: _304  and  _305
REMARK  111  A    between atoms: _304  and  _307
REMARK  112  A    between atoms: _307  and  _308
REMARK  113  A    between atoms: _311  and  _313
REMARK  114  A    between atoms: _313  and  _314
REMARK  115  A    between atoms: _313  and  _316
REMARK  116  A    between atoms: _316  and  _317
REMARK  117  A    between atoms: _327  and  _329
REMARK  118  A    between atoms: _329  and  _330
REMARK  119  A    between atoms: _329  and  _332
REMARK  120  A    between atoms: _332  and  _333
REMARK  121  A    between atoms: _338  and  _340
REMARK  122  A    between atoms: _340  and  _341
REMARK  123  A    between atoms: _340  and  _343
REMARK  124  A    between atoms: _343  and  _344
REMARK  125  A    between atoms: _348  and  ZN_456
REMARK  126  A    between atoms: _349  and  _351
REMARK  127  A    between atoms: _351  and  _352
REMARK  128  A    between atoms: _351  and  _354
REMARK  129  A    between atoms: _354  and  _355
REMARK  130  A    between atoms: _358  and  _360
REMARK  131  A    between atoms: _360  and  _361
REMARK  132  A    between atoms: _363  and  _365
REMARK  133  A    between atoms: _365  and  _366
REMARK  134  A    between atoms: _365  and  _368
REMARK  135  A    between atoms: _368  and  _369
REMARK  136  A    between atoms: _372  and  _374
REMARK  137  A    between atoms: _374  and  _375
REMARK  138  A    between atoms: _374  and  _377
REMARK  139  A    between atoms: _377  and  _378
REMARK  140  A    between atoms: _381  and  _383
REMARK  141  A    between atoms: _383  and  _384
REMARK  142  A    between atoms: _387  and  _389
REMARK  143  A    between atoms: _389  and  _390
REMARK  144  A    between atoms: _389  and  _392
REMARK  145  A    between atoms: _392  and  _393
REMARK  146  A    between atoms: _398  and  _399
REMARK  147  A    between atoms: _401  and  _403
REMARK  148  A    between atoms: _403  and  _404
REMARK  149  A    between atoms: _403  and  _406
REMARK  150  A    between atoms: _406  and  _407
REMARK  151  A    between atoms: _410  and  _412
REMARK  152  A    between atoms: _412  and  _413
REMARK  153  A    between atoms: _412  and  _415
REMARK  154  A    between atoms: _415  and  _416
REMARK  155  A    between atoms: _416  and  _417
REMARK  156  A    between atoms: _420  and  _422
REMARK  157  A    between atoms: _422  and  _423
REMARK  158  A    between atoms: _422  and  _425
REMARK  159  A    between atoms: _425  and  _426
REMARK  160  A    between atoms: _426  and  _427
REMARK  161  A    between atoms: _427  and  _428
REMARK  162  A    between atoms: _437  and  _439
REMARK  163  A    between atoms: _439  and  _440
REMARK  164  A    between atoms: _442  and  _444
REMARK  165  A    between atoms: _444  and  _445
REMARK  166  A    between atoms: _444  and  _447
REMARK  167  A    between atoms: _447  and  _448
REMARK  168  A    between atoms: _451  and  _453
REMARK  169  A    between atoms: _453  and  _454
REMARK                            x       y       z     vdW  Elec       q    Type
REMARK                         _______ _______ _______ _____ _____    ______ ____
ROOT
ATOM      1  CA  THR A   1      34.669  68.130  -2.595  0.00  0.00    +0.160 C 
ENDROOT
BRANCH   1   2
ATOM      2  N   THR A   1      36.136  68.067  -2.568  0.00  0.00    -0.237 NA
ATOM      3  H   THR A   1      36.607  67.679  -1.726  0.00  0.00    +0.142 HD
ENDBRANCH   1   2
BRANCH   1   4
ATOM      4  CB  THR A   1      34.138  67.452  -1.354  0.00  0.00    +0.134 C 
ATOM      5  CG2 THR A   1      34.499  65.980  -1.284  0.00  0.00    +0.034 C 
BRANCH   4   6
ATOM      6  OG1 THR A   1      34.667  68.198  -0.251  0.00  0.00    -0.383 OA
ATOM      7  HG1 THR A   1      34.351  67.798   0.598  0.00  0.00    +0.210 HD
ENDBRANCH   4   6
ENDBRANCH   1   4
BRANCH   1   8
ATOM      8  C   THR A   1      34.140  69.585  -2.569  0.00  0.00    +0.227 C 
ATOM      9  O   THR A   1      32.967  69.795  -2.918  0.00  0.00    -0.287 OA
ENDBRANCH   1   8
TORSDOF 4
REMARK  Name = ../refined-set-2016/2f7p/2f7p_pocket.pdb
REMARK  169 active torsions:
REMARK  status: ('A' for Active; 'I' for Inactive)
REMARK    1  A    between atoms: _1  and  _3
REMARK    2  A    between atoms: _14  and  _17
REMARK    3  A    between atoms: _17  and  _18
REMARK    4  A    between atoms: _25  and  _26
REMARK    5  A    between atoms: _33  and  _34
REMARK    6  A    between atoms: _39  and  _41
REMARK    7  A    between atoms: _41  and  _42
REMARK    8  A    between atoms: _44  and  _46
REMARK    9  A    between atoms: _46  and  _47
REMARK   10  A    between atoms: _46  and  _49
REMARK   11  A    between atoms: _49  and  _50
REMARK   12  A    between atoms: _60  and  _62
REMARK   13  A    between atoms: _62  and  _63
REMARK   14  A    between atoms: _62  and  _65
REMARK   15  A    between atoms: _65  and  _66
REMARK   16  A    between atoms: _69  and  _71
REMARK   17  A    between atoms: _71  and  _72
REMARK   18  A    between atoms: _71  and  _74
REMARK   19  A    between atoms: _74  and  _75
REMARK   20  A    between atoms: _80  and  _81
REMARK   21  A    between atoms: _83  and  _85
REMARK   22  A    between atoms: _85  and  _86
REMARK   23  A    between atoms: _85  and  _88
REMARK   24  A    between atoms: _88  and  _89
REMARK   25  A    between atoms: _89  and  _90
REMARK   26  A    between atoms: _93  and  _95
REMARK   27  A    between atoms: _95  and  _96
REMARK   28  A    between atoms: _95  and  _98
REMARK   29  A    between atoms: _98  and  _99
REMARK   30  A    between atoms: _99  and  _100
REMARK   31  A    between atoms: _102  and  _104
REMARK   32  A    between atoms: _104  and  _105
REMARK   33  A    between atoms: _104  and  _107
REMARK   34  A    between atoms: _107  and  _108
REMARK   35  A    between atoms: _111  and  _113
REMARK   36  A    between atoms: _113  and  _114
REMARK   37  A    between atoms: _113  and  _116
REMARK   38  A    between atoms: _116  and  _117
REMARK   39  A    between atoms: _117  and  _119
REMARK   40  A    between atoms: _119  and  ZN_456
REMARK   41  A    between atoms: _121  and  _122
REMARK   42  A    between atoms: _127  and  _129
REMARK   43  A    between atoms: _129  and  _130
REMARK   44  A    between atoms: _129  and  _132
REMARK   45  A    between atoms: _132  and  _133
REMARK   46  A    between atoms: _139  and  _141
REMARK   47  A    between atoms: _141  and  _142
REMARK   48  A    between atoms: _141  and  _144
REMARK   49  A    between atoms: _144  and  _145
REMARK   50  A    between atoms: _145  and  _146
REMARK   51  A    between atoms: _151  and  _153
REMARK   52  A    between atoms: _153  and  _154
REMARK   53  A    between atoms: _153  and  _156
REMARK   54  A    between atoms: _156  and  _157
REMARK   55  A    between atoms: _157  and  _158
REMARK   56  A    between atoms: _158  and  _159
REMARK   57  A    between atoms: _168  and  _170
REMARK   58  A    between atoms: _170  and  _171
REMARK   59  A    between atoms: _170  and  _173
REMARK   60  A    between atoms: _173  and  _174
REMARK   61  A    between atoms: _179  and  _180
REMARK   62  A    between atoms: _182  and  _184
REMARK   63  A    between atoms: _184  and  _185
REMARK   64  A    between atoms: _184  and  _187
REMARK   65  A    between atoms: _187  and  _188
REMARK   66  A    between atoms: _190  and  _192
REMARK   67  A    between atoms: _192  and  _193
REMARK   68  A    between atoms: _192  and  _195
REMARK   69  A    between atoms: _195  and  _196
REMARK   70  A    between atoms: _201  and  _202
REMARK   71  A    between atoms: _204  and  _206
REMARK   72  A    between atoms: _206  and  _207
REMARK   73  A    between atoms: _206  and  _209
REMARK   74  A    between atoms: _209  and  _210
REMARK   75  A    between atoms: _213  and  _215
REMARK   76  A    between atoms: _215  and  _216
REMARK   77  A    between atoms: _215  and  _218
REMARK   78  A    between atoms: _218  and  _219
REMARK   79  A    between atoms: _222  and  _224
REMARK   80  A    between atoms: _224  and  _225
REMARK   81  A    between atoms: _224  and  _227
REMARK   82  A    between atoms: _227  and  _228
REMARK   83  A    between atoms: _233  and  _235
REMARK   84  A    between atoms: _235  and  _236
REMARK   85  A    between atoms: _235  and  _238
REMARK   86  A    between atoms: _238  and  _239
REMARK   87  A    between atoms: _239  and  _240
REMARK   88  A    between atoms: _240  and  _241
REMARK   89  A    between atoms: _250  and  _252
REMARK   90  A    between atoms: _252  and  _253
REMARK   91  A    between atoms: _255  and  _257
REMARK   92  A    between atoms: _257  and  _258
REMARK   93  A    between atoms: _257  and  _260
REMARK   94  A    between atoms: _260  and  _261
REMARK   95  A    between atoms: _264  and  _266
REMARK   96  A    between atoms: _266  and  _267
REMARK   97  A    between atoms: _266  and  _269
REMARK   98  A    between atoms: _269  and  _270
REMARK   99  A    between atoms: _273  and  _275
REMARK  100  A    between atoms: _275  and  _276
REMARK  101  A    between atoms: _275  and  _278
REMARK  102  A    between atoms: _278  and  _279
REMARK  103  A    between atoms: _285  and  _287
REMARK  104  A    between atoms: _287  and  _288
REMARK  105  A    between atoms: _287  and  _290
REMARK  106  A    between atoms: _290  and  _291
REMARK  107  A    between atoms: _291  and  _292
REMARK  108  A    between atoms: _292  and  _293
REMARK  109  A    between atoms: _302  and  _304
REMARK  110  A    between atoms: _304  and  _305
REMARK  111  A    between atoms: _304  and  _307
REMARK  112  A    between atoms: _307  and  _308
REMARK  113  A    between atoms: _311  and  _313
REMARK  114  A    between atoms: _313  and  _314
REMARK  115  A    between atoms: _313  and  _316
REMARK  116  A    between atoms: _316  and  _317
REMARK  117  A    between atoms: _327  and  _329
REMARK  118  A    between atoms: _329  and  _330
REMARK  119  A    between atoms: _329  and  _332
REMARK  120  A    between atoms: _332  and  _333
REMARK  121  A    between atoms: _338  and  _340
REMARK  122  A    between atoms: _340  and  _341
REMARK  123  A    between atoms: _340  and  _343
REMARK  124  A    between atoms: _343  and  _344
REMARK  125  A    between atoms: _348  and  ZN_456
REMARK  126  A    between atoms: _349  and  _351
REMARK  127  A    between atoms: _351  and  _352
REMARK  128  A    between atoms: _351  and  _354
REMARK  129  A    between atoms: _354  and  _355
REMARK  130  A    between atoms: _358  and  _360
REMARK  131  A    between atoms: _360  and  _361
REMARK  132  A    between atoms: _363  and  _365
REMARK  133  A    between atoms: _365  and  _366
REMARK  134  A    between atoms: _365  and  _368
REMARK  135  A    between atoms: _368  and  _369
REMARK  136  A    between atoms: _372  and  _374
REMARK  137  A    between atoms: _374  and  _375
REMARK  138  A    between atoms: _374  and  _377
REMARK  139  A    between atoms: _377  and  _378
REMARK  140  A    between atoms: _381  and  _383
REMARK  141  A    between atoms: _383  and  _384
REMARK  142  A    between atoms: _387  and  _389
REMARK  143  A    between atoms: _389  and  _390
REMARK  144  A    between atoms: _389  and  _392
REMARK  145  A    between atoms: _392  and  _393
REMARK  146  A    between atoms: _398  and  _399
REMARK  147  A    between atoms: _401  and  _403
REMARK  148  A    between atoms: _403  and  _404
REMARK  149  A    between atoms: _403  and  _406
REMARK  150  A    between atoms: _406  and  _407
REMARK  151  A    between atoms: _410  and  _412
REMARK  152  A    between atoms: _412  and  _413
REMARK  153  A    between atoms: _412  and  _415
REMARK  154  A    between atoms: _415  and  _416
REMARK  155  A    between atoms: _416  and  _417
REMARK  156  A    between atoms: _420  and  _422
REMARK  157  A    between atoms: _422  and  _423
REMARK  158  A    between atoms: _422  and  _425
REMARK  159  A    between atoms: _425  and  _426
REMARK  160  A    between atoms: _426  and  _427
REMARK  161  A    between atoms: _427  and  _428
REMARK  162  A    between atoms: _437  and  _439
REMARK  163  A    between atoms: _439  and  _440
REMARK  164  A    between atoms: _442  and  _444
REMARK  165  A    between atoms: _444  and  _445
REMARK  166  A    between atoms: _444  and  _447
REMARK  167  A    between atoms: _447  and  _448
REMARK  168  A    between atoms: _451  and  _453
REMARK  169  A    between atoms: _453  and  _454
REMARK                            x       y       z     vdW  Elec       q    Type
REMARK                         _______ _______ _______ _____ _____    ______ ____
ROOT
ATOM      1  C   THR A   1      33.354  72.212   2.478  0.00  0.00    +0.241 C 
ATOM      2  O   THR A   1      32.784  72.109   3.564  0.00  0.00    -0.274 OA
ATOM      3  N   ALA A   2      34.474  72.950   2.322  0.00  0.00    -0.298 N 
ATOM      4  H   ALA A   2      34.879  73.062   1.371  0.00  0.00    +0.150 HD
ENDROOT
BRANCH   3   5
ATOM      5  CA  ALA A   2      35.137  73.600   3.465  0.00  0.00    +0.137 C 
ATOM      6  CB  ALA A   2      36.669  73.368   3.382  0.00  0.00    +0.030 C 
BRANCH   5   7
ATOM      7  C   ALA A   2      34.819  75.078   3.516  0.00  0.00    +0.227 C 
ATOM      8  O   ALA A   2      34.318  75.685   2.558  0.00  0.00    -0.286 OA
ENDBRANCH   5   7
ENDBRANCH   3   5
BRANCH   1   9
ATOM      9  CA  THR A   1      32.715  71.580   1.243  0.00  0.00    +0.172 C 
BRANCH   9  10
ATOM     10  N   THR A   1      33.604  71.459   0.109  0.00  0.00    -0.236 NA
ATOM     11  H   THR A   1      34.395  70.785   0.162  0.00  0.00    +0.142 HD
ENDBRANCH   9  10
BRANCH   9  12
ATOM     12  CB  THR A   1      32.076  70.207   1.622  0.00  0.00    +0.135 C 
ATOM     13  CG2 THR A   1      31.256  69.677   0.440  0.00  0.00    +0.034 C 
BRANCH  12  14
ATOM     14  OG1 THR A   1      33.126  69.243   1.868  0.00  0.00    -0.383 OA
ATOM     15  HG1 THR A   1      33.675  69.139   1.051  0.00  0.00    +0.210 HD
ENDBRANCH  12  14
ENDBRANCH   9  12
ENDBRANCH   1   9
TORSDOF 6
REMARK  Name = ../refined-set-2016/2f7p/2f7p_pocket.pdb
REMARK  169 active torsions:
REMARK  status: ('A' for Active; 'I' for Inactive)
REMARK    1  A    between atoms: _1  and  _3
REMARK    2  A    between atoms: _14  and  _17
REMARK    3  A    between atoms: _17  and  _18
REMARK    4  A    between atoms: _25  and  _26
REMARK    5  A    between atoms: _33  and  _34
REMARK    6  A    between atoms: _39  and  _41
REMARK    7  A    between atoms: _41  and  _42
REMARK    8  A    between atoms: _44  and  _46
REMARK    9  A    between atoms: _46  and  _47
REMARK   10  A    between atoms: _46  and  _49
REMARK   11  A    between atoms: _49  and  _50
REMARK   12  A    between atoms: _60  and  _62
REMARK   13  A    between atoms: _62  and  _63
REMARK   14  A    between atoms: _62  and  _65
REMARK   15  A    between atoms: _65  and  _66
REMARK   16  A    between atoms: _69  and  _71
REMARK   17  A    between atoms: _71  and  _72
REMARK   18  A    between atoms: _71  and  _74
REMARK   19  A    between atoms: _74  and  _75
REMARK   20  A    between atoms: _80  and  _81
REMARK   21  A    between atoms: _83  and  _85
REMARK   22  A    between atoms: _85  and  _86
REMARK   23  A    between atoms: _85  and  _88
REMARK   24  A    between atoms: _88  and  _89
REMARK   25  A    between atoms: _89  and  _90
REMARK   26  A    between atoms: _93  and  _95
REMARK   27  A    between atoms: _95  and  _96
REMARK   28  A    between atoms: _95  and  _98
REMARK   29  A    between atoms: _98  and  _99
REMARK   30  A    between atoms: _99  and  _100
REMARK   31  A    between atoms: _102  and  _104
REMARK   32  A    between atoms: _104  and  _105
REMARK   33  A    between atoms: _104  and  _107
REMARK   34  A    between atoms: _107  and  _108
REMARK   35  A    between atoms: _111  and  _113
REMARK   36  A    between atoms: _113  and  _114
REMARK   37  A    between atoms: _113  and  _116
REMARK   38  A    between atoms: _116  and  _117
REMARK   39  A    between atoms: _117  and  _119
REMARK   40  A    between atoms: _119  and  ZN_456
REMARK   41  A    between atoms: _121  and  _122
REMARK   42  A    between atoms: _127  and  _129
REMARK   43  A    between atoms: _129  and  _130
REMARK   44  A    between atoms: _129  and  _132
REMARK   45  A    between atoms: _132  and  _133
REMARK   46  A    between atoms: _139  and  _141
REMARK   47  A    between atoms: _141  and  _142
REMARK   48  A    between atoms: _141  and  _144
REMARK   49  A    between atoms: _144  and  _145
REMARK   50  A    between atoms: _145  and  _146
REMARK   51  A    between atoms: _151  and  _153
REMARK   52  A    between atoms: _153  and  _154
REMARK   53  A    between atoms: _153  and  _156
REMARK   54  A    between atoms: _156  and  _157
REMARK   55  A    between atoms: _157  and  _158
REMARK   56  A    between atoms: _158  and  _159
REMARK   57  A    between atoms: _168  and  _170
REMARK   58  A    between atoms: _170  and  _171
REMARK   59  A    between atoms: _170  and  _173
REMARK   60  A    between atoms: _173  and  _174
REMARK   61  A    between atoms: _179  and  _180
REMARK   62  A    between atoms: _182  and  _184
REMARK   63  A    between atoms: _184  and  _185
REMARK   64  A    between atoms: _184  and  _187
REMARK   65  A    between atoms: _187  and  _188
REMARK   66  A    between atoms: _190  and  _192
REMARK   67  A    between atoms: _192  and  _193
REMARK   68  A    between atoms: _192  and  _195
REMARK   69  A    between atoms: _195  and  _196
REMARK   70  A    between atoms: _201  and  _202
REMARK   71  A    between atoms: _204  and  _206
REMARK   72  A    between atoms: _206  and  _207
REMARK   73  A    between atoms: _206  and  _209
REMARK   74  A    between atoms: _209  and  _210
REMARK   75  A    between atoms: _213  and  _215
REMARK   76  A    between atoms: _215  and  _216
REMARK   77  A    between atoms: _215  and  _218
REMARK   78  A    between atoms: _218  and  _219
REMARK   79  A    between atoms: _222  and  _224
REMARK   80  A    between atoms: _224  and  _225
REMARK   81  A    between atoms: _224  and  _227
REMARK   82  A    between atoms: _227  and  _228
REMARK   83  A    between atoms: _233  and  _235
REMARK   84  A    between atoms: _235  and  _236
REMARK   85  A    between atoms: _235  and  _238
REMARK   86  A    between atoms: _238  and  _239
REMARK   87  A    between atoms: _239  and  _240
REMARK   88  A    between atoms: _240  and  _241
REMARK   89  A    between atoms: _250  and  _252
REMARK   90  A    between atoms: _252  and  _253
REMARK   91  A    between atoms: _255  and  _257
REMARK   92  A    between atoms: _257  and  _258
REMARK   93  A    between atoms: _257  and  _260
REMARK   94  A    between atoms: _260  and  _261
REMARK   95  A    between atoms: _264  and  _266
REMARK   96  A    between atoms: _266  and  _267
REMARK   97  A    between atoms: _266  and  _269
REMARK   98  A    between atoms: _269  and  _270
REMARK   99  A    between atoms: _273  and  _275
REMARK  100  A    between atoms: _275  and  _276
REMARK  101  A    between atoms: _275  and  _278
REMARK  102  A    between atoms: _278  and  _279
REMARK  103  A    between atoms: _285  and  _287
REMARK  104  A    between atoms: _287  and  _288
REMARK  105  A    between atoms: _287  and  _290
REMARK  106  A    between atoms: _290  and  _291
REMARK  107  A    between atoms: _291  and  _292
REMARK  108  A    between atoms: _292  and  _293
REMARK  109  A    between atoms: _302  and  _304
REMARK  110  A    between atoms: _304  and  _305
REMARK  111  A    between atoms: _304  and  _307
REMARK  112  A    between atoms: _307  and  _308
REMARK  113  A    between atoms: _311  and  _313
REMARK  114  A    between atoms: _313  and  _314
REMARK  115  A    between atoms: _313  and  _316
REMARK  116  A    between atoms: _316  and  _317
REMARK  117  A    between atoms: _327  and  _329
REMARK  118  A    between atoms: _329  and  _330
REMARK  119  A    between atoms: _329  and  _332
REMARK  120  A    between atoms: _332  and  _333
REMARK  121  A    between atoms: _338  and  _340
REMARK  122  A    between atoms: _340  and  _341
REMARK  123  A    between atoms: _340  and  _343
REMARK  124  A    between atoms: _343  and  _344
REMARK  125  A    between atoms: _348  and  ZN_456
REMARK  126  A    between atoms: _349  and  _351
REMARK  127  A    between atoms: _351  and  _352
REMARK  128  A    between atoms: _351  and  _354
REMARK  129  A    between atoms: _354  and  _355
REMARK  130  A    between atoms: _358  and  _360
REMARK  131  A    between atoms: _360  and  _361
REMARK  132  A    between atoms: _363  and  _365
REMARK  133  A    between atoms: _365  and  _366
REMARK  134  A    between atoms: _365  and  _368
REMARK  135  A    between atoms: _368  and  _369
REMARK  136  A    between atoms: _372  and  _374
REMARK  137  A    between atoms: _374  and  _375
REMARK  138  A    between atoms: _374  and  _377
REMARK  139  A    between atoms: _377  and  _378
REMARK  140  A    between atoms: _381  and  _383
REMARK  141  A    between atoms: _383  and  _384
REMARK  142  A    between atoms: _387  and  _389
REMARK  143  A    between atoms: _389  and  _390
REMARK  144  A    between atoms: _389  and  _392
REMARK  145  A    between atoms: _392  and  _393
REMARK  146  A    between atoms: _398  and  _399
REMARK  147  A    between atoms: _401  and  _403
REMARK  148  A    between atoms: _403  and  _404
REMARK  149  A    between atoms: _403  and  _406
REMARK  150  A    between atoms: _406  and  _407
REMARK  151  A    between atoms: _410  and  _412
REMARK  152  A    between atoms: _412  and  _413
REMARK  153  A    between atoms: _412  and  _415
REMARK  154  A    between atoms: _415  and  _416
REMARK  155  A    between atoms: _416  and  _417
REMARK  156  A    between atoms: _420  and  _422
REMARK  157  A    between atoms: _422  and  _423
REMARK  158  A    between atoms: _422  and  _425
REMARK  159  A    between atoms: _425  and  _426
REMARK  160  A    between atoms: _426  and  _427
REMARK  161  A    between atoms: _427  and  _428
REMARK  162  A    between atoms: _437  and  _439
REMARK  163  A    between atoms: _439  and  _440
REMARK  164  A    between atoms: _442  and  _444
REMARK  165  A    between atoms: _444  and  _445
REMARK  166  A    between atoms: _444  and  _447
REMARK  167  A    between atoms: _447  and  _448
REMARK  168  A    between atoms: _451  and  _453
REMARK  169  A    between atoms: _453  and  _454
REMARK                            x       y       z     vdW  Elec       q    Type
REMARK                         _______ _______ _______ _____ _____    ______ ____
ROOT
ATOM      1  CG  TYR A   1      27.488  69.103   2.036  0.00  0.00    -0.020 A 
ATOM      2  CD2 TYR A   1      27.427  70.243   2.831  0.00  0.00    -0.001 A 
ATOM      3  CE2 TYR A   1      28.362  70.481   3.822  0.00  0.00    +0.036 A 
ATOM      4  CZ  TYR A   1      29.399  69.556   4.031  0.00  0.00    +0.134 A 
ATOM      5  CE1 TYR A   1      29.476  68.446   3.254  0.00  0.00    +0.036 A 
ATOM      6  CD1 TYR A   1      28.530  68.204   2.268  0.00  0.00    -0.001 A 
ENDROOT
BRANCH   4   7
ATOM      7  OH  TYR A   1      30.271  69.768   5.065  0.00  0.00    -0.506 OA
ATOM      8  HH  TYR A   1      30.192  69.029   5.719  0.00  0.00    +0.292 HD
ENDBRANCH   4   7
BRANCH   1   9
ATOM      9  CB  TYR A   1      26.438  68.843   0.981  0.00  0.00    +0.051 C 
BRANCH   9  10
ATOM     10  CA  TYR A   1      26.724  69.469  -0.413  0.00  0.00    +0.137 C 
BRANCH  10  11
ATOM     11  N   TYR A   1      26.943  70.917  -0.295  0.00  0.00    -0.239 NA
ATOM     12  H   TYR A   1      26.433  71.441   0.444  0.00  0.00    +0.142 HD
ENDBRANCH  10  11
BRANCH  10  13
ATOM     13  C   TYR A   1      25.550  69.102  -1.325  0.00  0.00    +0.224 C 
ATOM     14  O   TYR A   1      25.664  68.263  -2.216  0.00  0.00    -0.287 OA
ENDBRANCH  10  13
ENDBRANCH   9  10
ENDBRANCH   1   9
TORSDOF 5
REMARK  Name = ../refined-set-2016/2f7p/2f7p_pocket.pdb
REMARK  169 active torsions:
REMARK  status: ('A' for Active; 'I' for Inactive)
REMARK    1  A    between atoms: _1  and  _3
REMARK    2  A    between atoms: _14  and  _17
REMARK    3  A    between atoms: _17  and  _18
REMARK    4  A    between atoms: _25  and  _26
REMARK    5  A    between atoms: _33  and  _34
REMARK    6  A    between atoms: _39  and  _41
REMARK    7  A    between atoms: _41  and  _42
REMARK    8  A    between atoms: _44  and  _46
REMARK    9  A    between atoms: _46  and  _47
REMARK   10  A    between atoms: _46  and  _49
REMARK   11  A    between atoms: _49  and  _50
REMARK   12  A    between atoms: _60  and  _62
REMARK   13  A    between atoms: _62  and  _63
REMARK   14  A    between atoms: _62  and  _65
REMARK   15  A    between atoms: _65  and  _66
REMARK   16  A    between atoms: _69  and  _71
REMARK   17  A    between atoms: _71  and  _72
REMARK   18  A    between atoms: _71  and  _74
REMARK   19  A    between atoms: _74  and  _75
REMARK   20  A    between atoms: _80  and  _81
REMARK   21  A    between atoms: _83  and  _85
REMARK   22  A    between atoms: _85  and  _86
REMARK   23  A    between atoms: _85  and  _88
REMARK   24  A    between atoms: _88  and  _89
REMARK   25  A    between atoms: _89  and  _90
REMARK   26  A    between atoms: _93  and  _95
REMARK   27  A    between atoms: _95  and  _96
REMARK   28  A    between atoms: _95  and  _98
REMARK   29  A    between atoms: _98  and  _99
REMARK   30  A    between atoms: _99  and  _100
REMARK   31  A    between atoms: _102  and  _104
REMARK   32  A    between atoms: _104  and  _105
REMARK   33  A    between atoms: _104  and  _107
REMARK   34  A    between atoms: _107  and  _108
REMARK   35  A    between atoms: _111  and  _113
REMARK   36  A    between atoms: _113  and  _114
REMARK   37  A    between atoms: _113  and  _116
REMARK   38  A    between atoms: _116  and  _117
REMARK   39  A    between atoms: _117  and  _119
REMARK   40  A    between atoms: _119  and  ZN_456
REMARK   41  A    between atoms: _121  and  _122
REMARK   42  A    between atoms: _127  and  _129
REMARK   43  A    between atoms: _129  and  _130
REMARK   44  A    between atoms: _129  and  _132
REMARK   45  A    between atoms: _132  and  _133
REMARK   46  A    between atoms: _139  and  _141
REMARK   47  A    between atoms: _141  and  _142
REMARK   48  A    between atoms: _141  and  _144
REMARK   49  A    between atoms: _144  and  _145
REMARK   50  A    between atoms: _145  and  _146
REMARK   51  A    between atoms: _151  and  _153
REMARK   52  A    between atoms: _153  and  _154
REMARK   53  A    between atoms: _153  and  _156
REMARK   54  A    between atoms: _156  and  _157
REMARK   55  A    between atoms: _157  and  _158
REMARK   56  A    between atoms: _158  and  _159
REMARK   57  A    between atoms: _168  and  _170
REMARK   58  A    between atoms: _170  and  _171
REMARK   59  A    between atoms: _170  and  _173
REMARK   60  A    between atoms: _173  and  _174
REMARK   61  A    between atoms: _179  and  _180
REMARK   62  A    between atoms: _182  and  _184
REMARK   63  A    between atoms: _184  and  _185
REMARK   64  A    between atoms: _184  and  _187
REMARK   65  A    between atoms: _187  and  _188
REMARK   66  A    between atoms: _190  and  _192
REMARK   67  A    between atoms: _192  and  _193
REMARK   68  A    between atoms: _192  and  _195
REMARK   69  A    between atoms: _195  and  _196
REMARK   70  A    between atoms: _201  and  _202
REMARK   71  A    between atoms: _204  and  _206
REMARK   72  A    between atoms: _206  and  _207
REMARK   73  A    between atoms: _206  and  _209
REMARK   74  A    between atoms: _209  and  _210
REMARK   75  A    between atoms: _213  and  _215
REMARK   76  A    between atoms: _215  and  _216
REMARK   77  A    between atoms: _215  and  _218
REMARK   78  A    between atoms: _218  and  _219
REMARK   79  A    between atoms: _222  and  _224
REMARK   80  A    between atoms: _224  and  _225
REMARK   81  A    between atoms: _224  and  _227
REMARK   82  A    between atoms: _227  and  _228
REMARK   83  A    between atoms: _233  and  _235
REMARK   84  A    between atoms: _235  and  _236
REMARK   85  A    between atoms: _235  and  _238
REMARK   86  A    between atoms: _238  and  _239
REMARK   87  A    between atoms: _239  and  _240
REMARK   88  A    between atoms: _240  and  _241
REMARK   89  A    between atoms: _250  and  _252
REMARK   90  A    between atoms: _252  and  _253
REMARK   91  A    between atoms: _255  and  _257
REMARK   92  A    between atoms: _257  and  _258
REMARK   93  A    between atoms: _257  and  _260
REMARK   94  A    between atoms: _260  and  _261
REMARK   95  A    between atoms: _264  and  _266
REMARK   96  A    between atoms: _266  and  _267
REMARK   97  A    between atoms: _266  and  _269
REMARK   98  A    between atoms: _269  and  _270
REMARK   99  A    between atoms: _273  and  _275
REMARK  100  A    between atoms: _275  and  _276
REMARK  101  A    between atoms: _275  and  _278
REMARK  102  A    between atoms: _278  and  _279
REMARK  103  A    between atoms: _285  and  _287
REMARK  104  A    between atoms: _287  and  _288
REMARK  105  A    between atoms: _287  and  _290
REMARK  106  A    between atoms: _290  and  _291
REMARK  107  A    between atoms: _291  and  _292
REMARK  108  A    between atoms: _292  and  _293
REMARK  109  A    between atoms: _302  and  _304
REMARK  110  A    between atoms: _304  and  _305
REMARK  111  A    between atoms: _304  and  _307
REMARK  112  A    between atoms: _307  and  _308
REMARK  113  A    between atoms: _311  and  _313
REMARK  114  A    between atoms: _313  and  _314
REMARK  115  A    between atoms: _313  and  _316
REMARK  116  A    between atoms: _316  and  _317
REMARK  117  A    between atoms: _327  and  _329
REMARK  118  A    between atoms: _329  and  _330
REMARK  119  A    between atoms: _329  and  _332
REMARK  120  A    between atoms: _332  and  _333
REMARK  121  A    between atoms: _338  and  _340
REMARK  122  A    between atoms: _340  and  _341
REMARK  123  A    between atoms: _340  and  _343
REMARK  124  A    between atoms: _343  and  _344
REMARK  125  A    between atoms: _348  and  ZN_456
REMARK  126  A    between atoms: _349  and  _351
REMARK  127  A    between atoms: _351  and  _352
REMARK  128  A    between atoms: _351  and  _354
REMARK  129  A    between atoms: _354  and  _355
REMARK  130  A    between atoms: _358  and  _360
REMARK  131  A    between atoms: _360  and  _361
REMARK  132  A    between atoms: _363  and  _365
REMARK  133  A    between atoms: _365  and  _366
REMARK  134  A    between atoms: _365  and  _368
REMARK  135  A    between atoms: _368  and  _369
REMARK  136  A    between atoms: _372  and  _374
REMARK  137  A    between atoms: _374  and  _375
REMARK  138  A    between atoms: _374  and  _377
REMARK  139  A    between atoms: _377  and  _378
REMARK  140  A    between atoms: _381  and  _383
REMARK  141  A    between atoms: _383  and  _384
REMARK  142  A    between atoms: _387  and  _389
REMARK  143  A    between atoms: _389  and  _390
REMARK  144  A    between atoms: _389  and  _392
REMARK  145  A    between atoms: _392  and  _393
REMARK  146  A    between atoms: _398  and  _399
REMARK  147  A    between atoms: _401  and  _403
REMARK  148  A    between atoms: _403  and  _404
REMARK  149  A    between atoms: _403  and  _406
REMARK  150  A    between atoms: _406  and  _407
REMARK  151  A    between atoms: _410  and  _412
REMARK  152  A    between atoms: _412  and  _413
REMARK  153  A    between atoms: _412  and  _415
REMARK  154  A    between atoms: _415  and  _416
REMARK  155  A    between atoms: _416  and  _417
REMARK  156  A    between atoms: _420  and  _422
REMARK  157  A    between atoms: _422  and  _423
REMARK  158  A    between atoms: _422  and  _425
REMARK  159  A    between atoms: _425  and  _426
REMARK  160  A    between atoms: _426  and  _427
REMARK  161  A    between atoms: _427  and  _428
REMARK  162  A    between atoms: _437  and  _439
REMARK  163  A    between atoms: _439  and  _440
REMARK  164  A    between atoms: _442  and  _444
REMARK  165  A    between atoms: _444  and  _445
REMARK  166  A    between atoms: _444  and  _447
REMARK  167  A    between atoms: _447  and  _448
REMARK  168  A    between atoms: _451  and  _453
REMARK  169  A    between atoms: _453  and  _454
REMARK                            x       y       z     vdW  Elec       q    Type
REMARK                         _______ _______ _______ _____ _____    ______ ____
ROOT
ATOM      1  CA  ARG A   3      24.969  70.056   7.330  0.00  0.00    +0.149 C 
ENDROOT
BRANCH   1   4
ATOM      2  C   GLU A   2      22.977  71.407   7.446  0.00  0.00    +0.241 C 
ATOM      3  O   GLU A   2      22.399  70.519   8.073  0.00  0.00    -0.273 OA
ATOM      4  N   ARG A   3      24.211  71.259   6.986  0.00  0.00    -0.297 N 
ATOM      5  H   ARG A   3      24.637  71.993   6.385  0.00  0.00    +0.150 HD
BRANCH   2   6
ATOM      6  CA  GLU A   2      22.308  72.711   7.139  0.00  0.00    +0.149 C 
BRANCH   6   8
ATOM      7  C   ASP A   1      22.224  72.666   4.705  0.00  0.00    +0.239 C 
ATOM      8  N   GLU A   2      22.519  73.312   5.827  0.00  0.00    -0.297 N 
ATOM      9  H   GLU A   2      22.911  74.273   5.769  0.00  0.00    +0.150 HD
ATOM     10  O   ASP A   1      21.912  71.471   4.664  0.00  0.00    -0.274 OA
BRANCH   7  11
ATOM     11  CA  ASP A   1      22.342  73.474   3.430  0.00  0.00    +0.156 C 
BRANCH  11  12
ATOM     12  N   ASP A   1      23.214  74.650   3.539  0.00  0.00    -0.238 NA
ATOM     13  H   ASP A   1      24.246  74.535   3.487  0.00  0.00    +0.142 HD
ENDBRANCH  11  12
BRANCH  11  14
ATOM     14  CB  ASP A   1      22.735  72.578   2.251  0.00  0.00    +0.140 C 
BRANCH  14  15
ATOM     15  CG  ASP A   1      24.219  72.287   2.200  0.00  0.00    +0.367 C 
ATOM     16  OD2 ASP A   1      24.993  72.673   3.151  0.00  0.00    -0.246 OA
ATOM     17  OD1 ASP A   1      24.545  71.691   1.184  0.00  0.00    -0.246 OA
ENDBRANCH  14  15
ENDBRANCH  11  14
ENDBRANCH   7  11
ENDBRANCH   6   8
BRANCH   6  18
ATOM     18  CB  GLU A   2      20.800  72.578   7.386  0.00  0.00    +0.041 C 
BRANCH  18  19
ATOM     19  CG  GLU A   2      20.052  73.894   7.341  0.00  0.00    +0.116 C 
BRANCH  19  20
ATOM     20  CD  GLU A   2      18.558  73.630   7.285  0.00  0.00    +0.365 C 
ATOM     21  OE2 GLU A   2      18.035  72.941   8.200  0.00  0.00    -0.246 OA
ATOM     22  OE1 GLU A   2      17.913  74.075   6.310  0.00  0.00    -0.246 OA
ENDBRANCH  19  20
ENDBRANCH  18  19
ENDBRANCH   6  18
ENDBRANCH   2   6
ENDBRANCH   1   4
BRANCH   1  23
ATOM     23  C   ARG A   3      26.103  70.399   8.280  0.00  0.00    +0.241 C 
ATOM     24  O   ARG A   3      26.842  69.511   8.728  0.00  0.00    -0.273 OA
ATOM     25  N   GLY A   4      26.257  71.679   8.626  0.00  0.00    -0.295 N 
ATOM     26  H   GLY A   4      25.636  72.402   8.210  0.00  0.00    +0.150 HD
BRANCH  25  27
ATOM     27  CA  GLY A   4      27.282  72.075   9.577  0.00  0.00    +0.176 C 
BRANCH  27  28
ATOM     28  C   GLY A   4      28.384  72.975   9.044  0.00  0.00    +0.243 C 
ATOM     29  O   GLY A   4      29.227  73.459   9.833  0.00  0.00    -0.273 OA
ATOM     30  N   LEU A   5      28.394  73.194   7.724  0.00  0.00    -0.297 N 
ATOM     31  H   LEU A   5      27.676  72.751   7.116  0.00  0.00    +0.150 HD
BRANCH  30  32
ATOM     32  CA  LEU A   5      29.419  74.059   7.139  0.00  0.00    +0.149 C 
BRANCH  32  33
ATOM     33  C   LEU A   5      29.199  75.525   7.553  0.00  0.00    +0.241 C 
ATOM     34  N   GLY A   6      27.927  75.908   7.724  0.00  0.00    -0.296 N 
ATOM     35  H   GLY A   6      27.158  75.242   7.509  0.00  0.00    +0.150 HD
ATOM     36  O   LEU A   5      30.157  76.289   7.651  0.00  0.00    -0.273 OA
BRANCH  34  37
ATOM     37  CA  GLY A   6      27.603  77.252   8.209  0.00  0.00    +0.163 C 
BRANCH  37  38
ATOM     38  C   GLY A   6      27.841  78.404   7.230  0.00  0.00    +0.229 C 
ATOM     39  O   GLY A   6      28.090  79.545   7.644  0.00  0.00    -0.286 OA
ENDBRANCH  37  38
ENDBRANCH  34  37
ENDBRANCH  32  33
BRANCH  32  40
ATOM     40  CB  LEU A   5      29.420  73.863   5.604  0.00  0.00    +0.029 C 
BRANCH  40  41
ATOM     41  CG  LEU A   5      30.235  74.881   4.794  0.00  0.00    +0.002 C 
ATOM     42  CD2 LEU A   5      31.739  74.813   5.224  0.00  0.00    +0.000 C 
ATOM     43  CD1 LEU A   5      30.114  74.623   3.269  0.00  0.00    +0.000 C 
ENDBRANCH  40  41
ENDBRANCH  32  40
ENDBRANCH  30  32
ENDBRANCH  27  28
ENDBRANCH  25  27
ENDBRANCH   1  23
BRANCH   1  44
ATOM     44  CB  ARG A   3      25.483  69.361   6.058  0.00  0.00    +0.033 C 
BRANCH  44  45
ATOM     45  CG  ARG A   3      24.314  68.765   5.203  0.00  0.00    +0.045 C 
BRANCH  45  46
ATOM     46  CD  ARG A   3      23.552  67.727   6.035  0.00  0.00    +0.174 C 
BRANCH  46  47
ATOM     47  NE  ARG A   3      22.509  66.985   5.314  0.00  0.00    -0.265 N 
ATOM     48  HE  ARG A   3      22.703  65.994   5.067  0.00  0.00    +0.259 HD
ATOM     49  CZ  ARG A   3      21.327  67.496   4.953  0.00  0.00    +0.342 C 
ATOM     50  NH2 ARG A   3      21.053  68.756   5.220  0.00  0.00    -0.292 N 
ATOM     51 HH21 ARG A   3      21.754  69.348   5.709  0.00  0.00    +0.255 HD
ATOM     52 HH22 ARG A   3      20.135  69.159   4.942  0.00  0.00    +0.255 HD
ATOM     53  NH1 ARG A   3      20.398  66.721   4.386  0.00  0.00    -0.292 N 
ATOM     54 HH11 ARG A   3      20.591  65.712   4.222  0.00  0.00    +0.255 HD
ATOM     55 HH12 ARG A   3      19.481  67.126   4.108  0.00  0.00    +0.255 HD
ENDBRANCH  46  47
ENDBRANCH  45  46
ENDBRANCH  44  45
ENDBRANCH   1  44
TORSDOF 23
REMARK  Name = ../refined-set-2016/2f7p/2f7p_pocket.pdb
REMARK  169 active torsions:
REMARK  status: ('A' for Active; 'I' for Inactive)
REMARK    1  A    between atoms: _1  and  _3
REMARK    2  A    between atoms: _14  and  _17
REMARK    3  A    between atoms: _17  and  _18
REMARK    4  A    between atoms: _25  and  _26
REMARK    5  A    between atoms: _33  and  _34
REMARK    6  A    between atoms: _39  and  _41
REMARK    7  A    between atoms: _41  and  _42
REMARK    8  A    between atoms: _44  and  _46
REMARK    9  A    between atoms: _46  and  _47
REMARK   10  A    between atoms: _46  and  _49
REMARK   11  A    between atoms: _49  and  _50
REMARK   12  A    between atoms: _60  and  _62
REMARK   13  A    between atoms: _62  and  _63
REMARK   14  A    between atoms: _62  and  _65
REMARK   15  A    between atoms: _65  and  _66
REMARK   16  A    between atoms: _69  and  _71
REMARK   17  A    between atoms: _71  and  _72
REMARK   18  A    between atoms: _71  and  _74
REMARK   19  A    between atoms: _74  and  _75
REMARK   20  A    between atoms: _80  and  _81
REMARK   21  A    between atoms: _83  and  _85
REMARK   22  A    between atoms: _85  and  _86
REMARK   23  A    between atoms: _85  and  _88
REMARK   24  A    between atoms: _88  and  _89
REMARK   25  A    between atoms: _89  and  _90
REMARK   26  A    between atoms: _93  and  _95
REMARK   27  A    between atoms: _95  and  _96
REMARK   28  A    between atoms: _95  and  _98
REMARK   29  A    between atoms: _98  and  _99
REMARK   30  A    between atoms: _99  and  _100
REMARK   31  A    between atoms: _102  and  _104
REMARK   32  A    between atoms: _104  and  _105
REMARK   33  A    between atoms: _104  and  _107
REMARK   34  A    between atoms: _107  and  _108
REMARK   35  A    between atoms: _111  and  _113
REMARK   36  A    between atoms: _113  and  _114
REMARK   37  A    between atoms: _113  and  _116
REMARK   38  A    between atoms: _116  and  _117
REMARK   39  A    between atoms: _117  and  _119
REMARK   40  A    between atoms: _119  and  ZN_456
REMARK   41  A    between atoms: _121  and  _122
REMARK   42  A    between atoms: _127  and  _129
REMARK   43  A    between atoms: _129  and  _130
REMARK   44  A    between atoms: _129  and  _132
REMARK   45  A    between atoms: _132  and  _133
REMARK   46  A    between atoms: _139  and  _141
REMARK   47  A    between atoms: _141  and  _142
REMARK   48  A    between atoms: _141  and  _144
REMARK   49  A    between atoms: _144  and  _145
REMARK   50  A    between atoms: _145  and  _146
REMARK   51  A    between atoms: _151  and  _153
REMARK   52  A    between atoms: _153  and  _154
REMARK   53  A    between atoms: _153  and  _156
REMARK   54  A    between atoms: _156  and  _157
REMARK   55  A    between atoms: _157  and  _158
REMARK   56  A    between atoms: _158  and  _159
REMARK   57  A    between atoms: _168  and  _170
REMARK   58  A    between atoms: _170  and  _171
REMARK   59  A    between atoms: _170  and  _173
REMARK   60  A    between atoms: _173  and  _174
REMARK   61  A    between atoms: _179  and  _180
REMARK   62  A    between atoms: _182  and  _184
REMARK   63  A    between atoms: _184  and  _185
REMARK   64  A    between atoms: _184  and  _187
REMARK   65  A    between atoms: _187  and  _188
REMARK   66  A    between atoms: _190  and  _192
REMARK   67  A    between atoms: _192  and  _193
REMARK   68  A    between atoms: _192  and  _195
REMARK   69  A    between atoms: _195  and  _196
REMARK   70  A    between atoms: _201  and  _202
REMARK   71  A    between atoms: _204  and  _206
REMARK   72  A    between atoms: _206  and  _207
REMARK   73  A    between atoms: _206  and  _209
REMARK   74  A    between atoms: _209  and  _210
REMARK   75  A    between atoms: _213  and  _215
REMARK   76  A    between atoms: _215  and  _216
REMARK   77  A    between atoms: _215  and  _218
REMARK   78  A    between atoms: _218  and  _219
REMARK   79  A    between atoms: _222  and  _224
REMARK   80  A    between atoms: _224  and  _225
REMARK   81  A    between atoms: _224  and  _227
REMARK   82  A    between atoms: _227  and  _228
REMARK   83  A    between atoms: _233  and  _235
REMARK   84  A    between atoms: _235  and  _236
REMARK   85  A    between atoms: _235  and  _238
REMARK   86  A    between atoms: _238  and  _239
REMARK   87  A    between atoms: _239  and  _240
REMARK   88  A    between atoms: _240  and  _241
REMARK   89  A    between atoms: _250  and  _252
REMARK   90  A    between atoms: _252  and  _253
REMARK   91  A    between atoms: _255  and  _257
REMARK   92  A    between atoms: _257  and  _258
REMARK   93  A    between atoms: _257  and  _260
REMARK   94  A    between atoms: _260  and  _261
REMARK   95  A    between atoms: _264  and  _266
REMARK   96  A    between atoms: _266  and  _267
REMARK   97  A    between atoms: _266  and  _269
REMARK   98  A    between atoms: _269  and  _270
REMARK   99  A    between atoms: _273  and  _275
REMARK  100  A    between atoms: _275  and  _276
REMARK  101  A    between atoms: _275  and  _278
REMARK  102  A    between atoms: _278  and  _279
REMARK  103  A    between atoms: _285  and  _287
REMARK  104  A    between atoms: _287  and  _288
REMARK  105  A    between atoms: _287  and  _290
REMARK  106  A    between atoms: _290  and  _291
REMARK  107  A    between atoms: _291  and  _292
REMARK  108  A    between atoms: _292  and  _293
REMARK  109  A    between atoms: _302  and  _304
REMARK  110  A    between atoms: _304  and  _305
REMARK  111  A    between atoms: _304  and  _307
REMARK  112  A    between atoms: _307  and  _308
REMARK  113  A    between atoms: _311  and  _313
REMARK  114  A    between atoms: _313  and  _314
REMARK  115  A    between atoms: _313  and  _316
REMARK  116  A    between atoms: _316  and  _317
REMARK  117  A    between atoms: _327  and  _329
REMARK  118  A    between atoms: _329  and  _330
REMARK  119  A    between atoms: _329  and  _332
REMARK  120  A    between atoms: _332  and  _333
REMARK  121  A    between atoms: _338  and  _340
REMARK  122  A    between atoms: _340  and  _341
REMARK  123  A    between atoms: _340  and  _343
REMARK  124  A    between atoms: _343  and  _344
REMARK  125  A    between atoms: _348  and  ZN_456
REMARK  126  A    between atoms: _349  and  _351
REMARK  127  A    between atoms: _351  and  _352
REMARK  128  A    between atoms: _351  and  _354
REMARK  129  A    between atoms: _354  and  _355
REMARK  130  A    between atoms: _358  and  _360
REMARK  131  A    between atoms: _360  and  _361
REMARK  132  A    between atoms: _363  and  _365
REMARK  133  A    between atoms: _365  and  _366
REMARK  134  A    between atoms: _365  and  _368
REMARK  135  A    between atoms: _368  and  _369
REMARK  136  A    between atoms: _372  and  _374
REMARK  137  A    between atoms: _374  and  _375
REMARK  138  A    between atoms: _374  and  _377
REMARK  139  A    between atoms: _377  and  _378
REMARK  140  A    between atoms: _381  and  _383
REMARK  141  A    between atoms: _383  and  _384
REMARK  142  A    between atoms: _387  and  _389
REMARK  143  A    between atoms: _389  and  _390
REMARK  144  A    between atoms: _389  and  _392
REMARK  145  A    between atoms: _392  and  _393
REMARK  146  A    between atoms: _398  and  _399
REMARK  147  A    between atoms: _401  and  _403
REMARK  148  A    between atoms: _403  and  _404
REMARK  149  A    between atoms: _403  and  _406
REMARK  150  A    between atoms: _406  and  _407
REMARK  151  A    between atoms: _410  and  _412
REMARK  152  A    between atoms: _412  and  _413
REMARK  153  A    between atoms: _412  and  _415
REMARK  154  A    between atoms: _415  and  _416
REMARK  155  A    between atoms: _416  and  _417
REMARK  156  A    between atoms: _420  and  _422
REMARK  157  A    between atoms: _422  and  _423
REMARK  158  A    between atoms: _422  and  _425
REMARK  159  A    between atoms: _425  and  _426
REMARK  160  A    between atoms: _426  and  _427
REMARK  161  A    between atoms: _427  and  _428
REMARK  162  A    between atoms: _437  and  _439
REMARK  163  A    between atoms: _439  and  _440
REMARK  164  A    between atoms: _442  and  _444
REMARK  165  A    between atoms: _444  and  _445
REMARK  166  A    between atoms: _444  and  _447
REMARK  167  A    between atoms: _447  and  _448
REMARK  168  A    between atoms: _451  and  _453
REMARK  169  A    between atoms: _453  and  _454
REMARK                            x       y       z     vdW  Elec       q    Type
REMARK                         _______ _______ _______ _____ _____    ______ ____
ROOT
ATOM      1  O   HOH     1      27.985  61.062  19.412  0.00  0.00    +0.000 OA
ENDROOT
TORSDOF 0
REMARK  Name = ../refined-set-2016/2f7p/2f7p_pocket.pdb
REMARK  169 active torsions:
REMARK  status: ('A' for Active; 'I' for Inactive)
REMARK    1  A    between atoms: _1  and  _3
REMARK    2  A    between atoms: _14  and  _17
REMARK    3  A    between atoms: _17  and  _18
REMARK    4  A    between atoms: _25  and  _26
REMARK    5  A    between atoms: _33  and  _34
REMARK    6  A    between atoms: _39  and  _41
REMARK    7  A    between atoms: _41  and  _42
REMARK    8  A    between atoms: _44  and  _46
REMARK    9  A    between atoms: _46  and  _47
REMARK   10  A    between atoms: _46  and  _49
REMARK   11  A    between atoms: _49  and  _50
REMARK   12  A    between atoms: _60  and  _62
REMARK   13  A    between atoms: _62  and  _63
REMARK   14  A    between atoms: _62  and  _65
REMARK   15  A    between atoms: _65  and  _66
REMARK   16  A    between atoms: _69  and  _71
REMARK   17  A    between atoms: _71  and  _72
REMARK   18  A    between atoms: _71  and  _74
REMARK   19  A    between atoms: _74  and  _75
REMARK   20  A    between atoms: _80  and  _81
REMARK   21  A    between atoms: _83  and  _85
REMARK   22  A    between atoms: _85  and  _86
REMARK   23  A    between atoms: _85  and  _88
REMARK   24  A    between atoms: _88  and  _89
REMARK   25  A    between atoms: _89  and  _90
REMARK   26  A    between atoms: _93  and  _95
REMARK   27  A    between atoms: _95  and  _96
REMARK   28  A    between atoms: _95  and  _98
REMARK   29  A    between atoms: _98  and  _99
REMARK   30  A    between atoms: _99  and  _100
REMARK   31  A    between atoms: _102  and  _104
REMARK   32  A    between atoms: _104  and  _105
REMARK   33  A    between atoms: _104  and  _107
REMARK   34  A    between atoms: _107  and  _108
REMARK   35  A    between atoms: _111  and  _113
REMARK   36  A    between atoms: _113  and  _114
REMARK   37  A    between atoms: _113  and  _116
REMARK   38  A    between atoms: _116  and  _117
REMARK   39  A    between atoms: _117  and  _119
REMARK   40  A    between atoms: _119  and  ZN_456
REMARK   41  A    between atoms: _121  and  _122
REMARK   42  A    between atoms: _127  and  _129
REMARK   43  A    between atoms: _129  and  _130
REMARK   44  A    between atoms: _129  and  _132
REMARK   45  A    between atoms: _132  and  _133
REMARK   46  A    between atoms: _139  and  _141
REMARK   47  A    between atoms: _141  and  _142
REMARK   48  A    between atoms: _141  and  _144
REMARK   49  A    between atoms: _144  and  _145
REMARK   50  A    between atoms: _145  and  _146
REMARK   51  A    between atoms: _151  and  _153
REMARK   52  A    between atoms: _153  and  _154
REMARK   53  A    between atoms: _153  and  _156
REMARK   54  A    between atoms: _156  and  _157
REMARK   55  A    between atoms: _157  and  _158
REMARK   56  A    between atoms: _158  and  _159
REMARK   57  A    between atoms: _168  and  _170
REMARK   58  A    between atoms: _170  and  _171
REMARK   59  A    between atoms: _170  and  _173
REMARK   60  A    between atoms: _173  and  _174
REMARK   61  A    between atoms: _179  and  _180
REMARK   62  A    between atoms: _182  and  _184
REMARK   63  A    between atoms: _184  and  _185
REMARK   64  A    between atoms: _184  and  _187
REMARK   65  A    between atoms: _187  and  _188
REMARK   66  A    between atoms: _190  and  _192
REMARK   67  A    between atoms: _192  and  _193
REMARK   68  A    between atoms: _192  and  _195
REMARK   69  A    between atoms: _195  and  _196
REMARK   70  A    between atoms: _201  and  _202
REMARK   71  A    between atoms: _204  and  _206
REMARK   72  A    between atoms: _206  and  _207
REMARK   73  A    between atoms: _206  and  _209
REMARK   74  A    between atoms: _209  and  _210
REMARK   75  A    between atoms: _213  and  _215
REMARK   76  A    between atoms: _215  and  _216
REMARK   77  A    between atoms: _215  and  _218
REMARK   78  A    between atoms: _218  and  _219
REMARK   79  A    between atoms: _222  and  _224
REMARK   80  A    between atoms: _224  and  _225
REMARK   81  A    between atoms: _224  and  _227
REMARK   82  A    between atoms: _227  and  _228
REMARK   83  A    between atoms: _233  and  _235
REMARK   84  A    between atoms: _235  and  _236
REMARK   85  A    between atoms: _235  and  _238
REMARK   86  A    between atoms: _238  and  _239
REMARK   87  A    between atoms: _239  and  _240
REMARK   88  A    between atoms: _240  and  _241
REMARK   89  A    between atoms: _250  and  _252
REMARK   90  A    between atoms: _252  and  _253
REMARK   91  A    between atoms: _255  and  _257
REMARK   92  A    between atoms: _257  and  _258
REMARK   93  A    between atoms: _257  and  _260
REMARK   94  A    between atoms: _260  and  _261
REMARK   95  A    between atoms: _264  and  _266
REMARK   96  A    between atoms: _266  and  _267
REMARK   97  A    between atoms: _266  and  _269
REMARK   98  A    between atoms: _269  and  _270
REMARK   99  A    between atoms: _273  and  _275
REMARK  100  A    between atoms: _275  and  _276
REMARK  101  A    between atoms: _275  and  _278
REMARK  102  A    between atoms: _278  and  _279
REMARK  103  A    between atoms: _285  and  _287
REMARK  104  A    between atoms: _287  and  _288
REMARK  105  A    between atoms: _287  and  _290
REMARK  106  A    between atoms: _290  and  _291
REMARK  107  A    between atoms: _291  and  _292
REMARK  108  A    between atoms: _292  and  _293
REMARK  109  A    between atoms: _302  and  _304
REMARK  110  A    between atoms: _304  and  _305
REMARK  111  A    between atoms: _304  and  _307
REMARK  112  A    between atoms: _307  and  _308
REMARK  113  A    between atoms: _311  and  _313
REMARK  114  A    between atoms: _313  and  _314
REMARK  115  A    between atoms: _313  and  _316
REMARK  116  A    between atoms: _316  and  _317
REMARK  117  A    between atoms: _327  and  _329
REMARK  118  A    between atoms: _329  and  _330
REMARK  119  A    between atoms: _329  and  _332
REMARK  120  A    between atoms: _332  and  _333
REMARK  121  A    between atoms: _338  and  _340
REMARK  122  A    between atoms: _340  and  _341
REMARK  123  A    between atoms: _340  and  _343
REMARK  124  A    between atoms: _343  and  _344
REMARK  125  A    between atoms: _348  and  ZN_456
REMARK  126  A    between atoms: _349  and  _351
REMARK  127  A    between atoms: _351  and  _352
REMARK  128  A    between atoms: _351  and  _354
REMARK  129  A    between atoms: _354  and  _355
REMARK  130  A    between atoms: _358  and  _360
REMARK  131  A    between atoms: _360  and  _361
REMARK  132  A    between atoms: _363  and  _365
REMARK  133  A    between atoms: _365  and  _366
REMARK  134  A    between atoms: _365  and  _368
REMARK  135  A    between atoms: _368  and  _369
REMARK  136  A    between atoms: _372  and  _374
REMARK  137  A    between atoms: _374  and  _375
REMARK  138  A    between atoms: _374  and  _377
REMARK  139  A    between atoms: _377  and  _378
REMARK  140  A    between atoms: _381  and  _383
REMARK  141  A    between atoms: _383  and  _384
REMARK  142  A    between atoms: _387  and  _389
REMARK  143  A    between atoms: _389  and  _390
REMARK  144  A    between atoms: _389  and  _392
REMARK  145  A    between atoms: _392  and  _393
REMARK  146  A    between atoms: _398  and  _399
REMARK  147  A    between atoms: _401  and  _403
REMARK  148  A    between atoms: _403  and  _404
REMARK  149  A    between atoms: _403  and  _406
REMARK  150  A    between atoms: _406  and  _407
REMARK  151  A    between atoms: _410  and  _412
REMARK  152  A    between atoms: _412  and  _413
REMARK  153  A    between atoms: _412  and  _415
REMARK  154  A    between atoms: _415  and  _416
REMARK  155  A    between atoms: _416  and  _417
REMARK  156  A    between atoms: _420  and  _422
REMARK  157  A    between atoms: _422  and  _423
REMARK  158  A    between atoms: _422  and  _425
REMARK  159  A    between atoms: _425  and  _426
REMARK  160  A    between atoms: _426  and  _427
REMARK  161  A    between atoms: _427  and  _428
REMARK  162  A    between atoms: _437  and  _439
REMARK  163  A    between atoms: _439  and  _440
REMARK  164  A    between atoms: _442  and  _444
REMARK  165  A    between atoms: _444  and  _445
REMARK  166  A    between atoms: _444  and  _447
REMARK  167  A    between atoms: _447  and  _448
REMARK  168  A    between atoms: _451  and  _453
REMARK  169  A    between atoms: _453  and  _454
REMARK                            x       y       z     vdW  Elec       q    Type
REMARK                         _______ _______ _______ _____ _____    ______ ____
ROOT
ATOM      1  O   HOH     1      26.466  63.832  16.978  0.00  0.00    +0.000 OA
ENDROOT
TORSDOF 0
REMARK  Name = ../refined-set-2016/2f7p/2f7p_pocket.pdb
REMARK  169 active torsions:
REMARK  status: ('A' for Active; 'I' for Inactive)
REMARK    1  A    between atoms: _1  and  _3
REMARK    2  A    between atoms: _14  and  _17
REMARK    3  A    between atoms: _17  and  _18
REMARK    4  A    between atoms: _25  and  _26
REMARK    5  A    between atoms: _33  and  _34
REMARK    6  A    between atoms: _39  and  _41
REMARK    7  A    between atoms: _41  and  _42
REMARK    8  A    between atoms: _44  and  _46
REMARK    9  A    between atoms: _46  and  _47
REMARK   10  A    between atoms: _46  and  _49
REMARK   11  A    between atoms: _49  and  _50
REMARK   12  A    between atoms: _60  and  _62
REMARK   13  A    between atoms: _62  and  _63
REMARK   14  A    between atoms: _62  and  _65
REMARK   15  A    between atoms: _65  and  _66
REMARK   16  A    between atoms: _69  and  _71
REMARK   17  A    between atoms: _71  and  _72
REMARK   18  A    between atoms: _71  and  _74
REMARK   19  A    between atoms: _74  and  _75
REMARK   20  A    between atoms: _80  and  _81
REMARK   21  A    between atoms: _83  and  _85
REMARK   22  A    between atoms: _85  and  _86
REMARK   23  A    between atoms: _85  and  _88
REMARK   24  A    between atoms: _88  and  _89
REMARK   25  A    between atoms: _89  and  _90
REMARK   26  A    between atoms: _93  and  _95
REMARK   27  A    between atoms: _95  and  _96
REMARK   28  A    between atoms: _95  and  _98
REMARK   29  A    between atoms: _98  and  _99
REMARK   30  A    between atoms: _99  and  _100
REMARK   31  A    between atoms: _102  and  _104
REMARK   32  A    between atoms: _104  and  _105
REMARK   33  A    between atoms: _104  and  _107
REMARK   34  A    between atoms: _107  and  _108
REMARK   35  A    between atoms: _111  and  _113
REMARK   36  A    between atoms: _113  and  _114
REMARK   37  A    between atoms: _113  and  _116
REMARK   38  A    between atoms: _116  and  _117
REMARK   39  A    between atoms: _117  and  _119
REMARK   40  A    between atoms: _119  and  ZN_456
REMARK   41  A    between atoms: _121  and  _122
REMARK   42  A    between atoms: _127  and  _129
REMARK   43  A    between atoms: _129  and  _130
REMARK   44  A    between atoms: _129  and  _132
REMARK   45  A    between atoms: _132  and  _133
REMARK   46  A    between atoms: _139  and  _141
REMARK   47  A    between atoms: _141  and  _142
REMARK   48  A    between atoms: _141  and  _144
REMARK   49  A    between atoms: _144  and  _145
REMARK   50  A    between atoms: _145  and  _146
REMARK   51  A    between atoms: _151  and  _153
REMARK   52  A    between atoms: _153  and  _154
REMARK   53  A    between atoms: _153  and  _156
REMARK   54  A    between atoms: _156  and  _157
REMARK   55  A    between atoms: _157  and  _158
REMARK   56  A    between atoms: _158  and  _159
REMARK   57  A    between atoms: _168  and  _170
REMARK   58  A    between atoms: _170  and  _171
REMARK   59  A    between atoms: _170  and  _173
REMARK   60  A    between atoms: _173  and  _174
REMARK   61  A    between atoms: _179  and  _180
REMARK   62  A    between atoms: _182  and  _184
REMARK   63  A    between atoms: _184  and  _185
REMARK   64  A    between atoms: _184  and  _187
REMARK   65  A    between atoms: _187  and  _188
REMARK   66  A    between atoms: _190  and  _192
REMARK   67  A    between atoms: _192  and  _193
REMARK   68  A    between atoms: _192  and  _195
REMARK   69  A    between atoms: _195  and  _196
REMARK   70  A    between atoms: _201  and  _202
REMARK   71  A    between atoms: _204  and  _206
REMARK   72  A    between atoms: _206  and  _207
REMARK   73  A    between atoms: _206  and  _209
REMARK   74  A    between atoms: _209  and  _210
REMARK   75  A    between atoms: _213  and  _215
REMARK   76  A    between atoms: _215  and  _216
REMARK   77  A    between atoms: _215  and  _218
REMARK   78  A    between atoms: _218  and  _219
REMARK   79  A    between atoms: _222  and  _224
REMARK   80  A    between atoms: _224  and  _225
REMARK   81  A    between atoms: _224  and  _227
REMARK   82  A    between atoms: _227  and  _228
REMARK   83  A    between atoms: _233  and  _235
REMARK   84  A    between atoms: _235  and  _236
REMARK   85  A    between atoms: _235  and  _238
REMARK   86  A    between atoms: _238  and  _239
REMARK   87  A    between atoms: _239  and  _240
REMARK   88  A    between atoms: _240  and  _241
REMARK   89  A    between atoms: _250  and  _252
REMARK   90  A    between atoms: _252  and  _253
REMARK   91  A    between atoms: _255  and  _257
REMARK   92  A    between atoms: _257  and  _258
REMARK   93  A    between atoms: _257  and  _260
REMARK   94  A    between atoms: _260  and  _261
REMARK   95  A    between atoms: _264  and  _266
REMARK   96  A    between atoms: _266  and  _267
REMARK   97  A    between atoms: _266  and  _269
REMARK   98  A    between atoms: _269  and  _270
REMARK   99  A    between atoms: _273  and  _275
REMARK  100  A    between atoms: _275  and  _276
REMARK  101  A    between atoms: _275  and  _278
REMARK  102  A    between atoms: _278  and  _279
REMARK  103  A    between atoms: _285  and  _287
REMARK  104  A    between atoms: _287  and  _288
REMARK  105  A    between atoms: _287  and  _290
REMARK  106  A    between atoms: _290  and  _291
REMARK  107  A    between atoms: _291  and  _292
REMARK  108  A    between atoms: _292  and  _293
REMARK  109  A    between atoms: _302  and  _304
REMARK  110  A    between atoms: _304  and  _305
REMARK  111  A    between atoms: _304  and  _307
REMARK  112  A    between atoms: _307  and  _308
REMARK  113  A    between atoms: _311  and  _313
REMARK  114  A    between atoms: _313  and  _314
REMARK  115  A    between atoms: _313  and  _316
REMARK  116  A    between atoms: _316  and  _317
REMARK  117  A    between atoms: _327  and  _329
REMARK  118  A    between atoms: _329  and  _330
REMARK  119  A    between atoms: _329  and  _332
REMARK  120  A    between atoms: _332  and  _333
REMARK  121  A    between atoms: _338  and  _340
REMARK  122  A    between atoms: _340  and  _341
REMARK  123  A    between atoms: _340  and  _343
REMARK  124  A    between atoms: _343  and  _344
REMARK  125  A    between atoms: _348  and  ZN_456
REMARK  126  A    between atoms: _349  and  _351
REMARK  127  A    between atoms: _351  and  _352
REMARK  128  A    between atoms: _351  and  _354
REMARK  129  A    between atoms: _354  and  _355
REMARK  130  A    between atoms: _358  and  _360
REMARK  131  A    between atoms: _360  and  _361
REMARK  132  A    between atoms: _363  and  _365
REMARK  133  A    between atoms: _365  and  _366
REMARK  134  A    between atoms: _365  and  _368
REMARK  135  A    between atoms: _368  and  _369
REMARK  136  A    between atoms: _372  and  _374
REMARK  137  A    between atoms: _374  and  _375
REMARK  138  A    between atoms: _374  and  _377
REMARK  139  A    between atoms: _377  and  _378
REMARK  140  A    between atoms: _381  and  _383
REMARK  141  A    between atoms: _383  and  _384
REMARK  142  A    between atoms: _387  and  _389
REMARK  143  A    between atoms: _389  and  _390
REMARK  144  A    between atoms: _389  and  _392
REMARK  145  A    between atoms: _392  and  _393
REMARK  146  A    between atoms: _398  and  _399
REMARK  147  A    between atoms: _401  and  _403
REMARK  148  A    between atoms: _403  and  _404
REMARK  149  A    between atoms: _403  and  _406
REMARK  150  A    between atoms: _406  and  _407
REMARK  151  A    between atoms: _410  and  _412
REMARK  152  A    between atoms: _412  and  _413
REMARK  153  A    between atoms: _412  and  _415
REMARK  154  A    between atoms: _415  and  _416
REMARK  155  A    between atoms: _416  and  _417
REMARK  156  A    between atoms: _420  and  _422
REMARK  157  A    between atoms: _422  and  _423
REMARK  158  A    between atoms: _422  and  _425
REMARK  159  A    between atoms: _425  and  _426
REMARK  160  A    between atoms: _426  and  _427
REMARK  161  A    between atoms: _427  and  _428
REMARK  162  A    between atoms: _437  and  _439
REMARK  163  A    between atoms: _439  and  _440
REMARK  164  A    between atoms: _442  and  _444
REMARK  165  A    between atoms: _444  and  _445
REMARK  166  A    between atoms: _444  and  _447
REMARK  167  A    between atoms: _447  and  _448
REMARK  168  A    between atoms: _451  and  _453
REMARK  169  A    between atoms: _453  and  _454
REMARK                            x       y       z     vdW  Elec       q    Type
REMARK                         _______ _______ _______ _____ _____    ______ ____
ROOT
ATOM      1  O   HOH     1      25.830  66.306  17.032  0.00  0.00    +0.000 OA
ENDROOT
TORSDOF 0
REMARK  Name = ../refined-set-2016/2f7p/2f7p_pocket.pdb
REMARK  169 active torsions:
REMARK  status: ('A' for Active; 'I' for Inactive)
REMARK    1  A    between atoms: _1  and  _3
REMARK    2  A    between atoms: _14  and  _17
REMARK    3  A    between atoms: _17  and  _18
REMARK    4  A    between atoms: _25  and  _26
REMARK    5  A    between atoms: _33  and  _34
REMARK    6  A    between atoms: _39  and  _41
REMARK    7  A    between atoms: _41  and  _42
REMARK    8  A    between atoms: _44  and  _46
REMARK    9  A    between atoms: _46  and  _47
REMARK   10  A    between atoms: _46  and  _49
REMARK   11  A    between atoms: _49  and  _50
REMARK   12  A    between atoms: _60  and  _62
REMARK   13  A    between atoms: _62  and  _63
REMARK   14  A    between atoms: _62  and  _65
REMARK   15  A    between atoms: _65  and  _66
REMARK   16  A    between atoms: _69  and  _71
REMARK   17  A    between atoms: _71  and  _72
REMARK   18  A    between atoms: _71  and  _74
REMARK   19  A    between atoms: _74  and  _75
REMARK   20  A    between atoms: _80  and  _81
REMARK   21  A    between atoms: _83  and  _85
REMARK   22  A    between atoms: _85  and  _86
REMARK   23  A    between atoms: _85  and  _88
REMARK   24  A    between atoms: _88  and  _89
REMARK   25  A    between atoms: _89  and  _90
REMARK   26  A    between atoms: _93  and  _95
REMARK   27  A    between atoms: _95  and  _96
REMARK   28  A    between atoms: _95  and  _98
REMARK   29  A    between atoms: _98  and  _99
REMARK   30  A    between atoms: _99  and  _100
REMARK   31  A    between atoms: _102  and  _104
REMARK   32  A    between atoms: _104  and  _105
REMARK   33  A    between atoms: _104  and  _107
REMARK   34  A    between atoms: _107  and  _108
REMARK   35  A    between atoms: _111  and  _113
REMARK   36  A    between atoms: _113  and  _114
REMARK   37  A    between atoms: _113  and  _116
REMARK   38  A    between atoms: _116  and  _117
REMARK   39  A    between atoms: _117  and  _119
REMARK   40  A    between atoms: _119  and  ZN_456
REMARK   41  A    between atoms: _121  and  _122
REMARK   42  A    between atoms: _127  and  _129
REMARK   43  A    between atoms: _129  and  _130
REMARK   44  A    between atoms: _129  and  _132
REMARK   45  A    between atoms: _132  and  _133
REMARK   46  A    between atoms: _139  and  _141
REMARK   47  A    between atoms: _141  and  _142
REMARK   48  A    between atoms: _141  and  _144
REMARK   49  A    between atoms: _144  and  _145
REMARK   50  A    between atoms: _145  and  _146
REMARK   51  A    between atoms: _151  and  _153
REMARK   52  A    between atoms: _153  and  _154
REMARK   53  A    between atoms: _153  and  _156
REMARK   54  A    between atoms: _156  and  _157
REMARK   55  A    between atoms: _157  and  _158
REMARK   56  A    between atoms: _158  and  _159
REMARK   57  A    between atoms: _168  and  _170
REMARK   58  A    between atoms: _170  and  _171
REMARK   59  A    between atoms: _170  and  _173
REMARK   60  A    between atoms: _173  and  _174
REMARK   61  A    between atoms: _179  and  _180
REMARK   62  A    between atoms: _182  and  _184
REMARK   63  A    between atoms: _184  and  _185
REMARK   64  A    between atoms: _184  and  _187
REMARK   65  A    between atoms: _187  and  _188
REMARK   66  A    between atoms: _190  and  _192
REMARK   67  A    between atoms: _192  and  _193
REMARK   68  A    between atoms: _192  and  _195
REMARK   69  A    between atoms: _195  and  _196
REMARK   70  A    between atoms: _201  and  _202
REMARK   71  A    between atoms: _204  and  _206
REMARK   72  A    between atoms: _206  and  _207
REMARK   73  A    between atoms: _206  and  _209
REMARK   74  A    between atoms: _209  and  _210
REMARK   75  A    between atoms: _213  and  _215
REMARK   76  A    between atoms: _215  and  _216
REMARK   77  A    between atoms: _215  and  _218
REMARK   78  A    between atoms: _218  and  _219
REMARK   79  A    between atoms: _222  and  _224
REMARK   80  A    between atoms: _224  and  _225
REMARK   81  A    between atoms: _224  and  _227
REMARK   82  A    between atoms: _227  and  _228
REMARK   83  A    between atoms: _233  and  _235
REMARK   84  A    between atoms: _235  and  _236
REMARK   85  A    between atoms: _235  and  _238
REMARK   86  A    between atoms: _238  and  _239
REMARK   87  A    between atoms: _239  and  _240
REMARK   88  A    between atoms: _240  and  _241
REMARK   89  A    between atoms: _250  and  _252
REMARK   90  A    between atoms: _252  and  _253
REMARK   91  A    between atoms: _255  and  _257
REMARK   92  A    between atoms: _257  and  _258
REMARK   93  A    between atoms: _257  and  _260
REMARK   94  A    between atoms: _260  and  _261
REMARK   95  A    between atoms: _264  and  _266
REMARK   96  A    between atoms: _266  and  _267
REMARK   97  A    between atoms: _266  and  _269
REMARK   98  A    between atoms: _269  and  _270
REMARK   99  A    between atoms: _273  and  _275
REMARK  100  A    between atoms: _275  and  _276
REMARK  101  A    between atoms: _275  and  _278
REMARK  102  A    between atoms: _278  and  _279
REMARK  103  A    between atoms: _285  and  _287
REMARK  104  A    between atoms: _287  and  _288
REMARK  105  A    between atoms: _287  and  _290
REMARK  106  A    between atoms: _290  and  _291
REMARK  107  A    between atoms: _291  and  _292
REMARK  108  A    between atoms: _292  and  _293
REMARK  109  A    between atoms: _302  and  _304
REMARK  110  A    between atoms: _304  and  _305
REMARK  111  A    between atoms: _304  and  _307
REMARK  112  A    between atoms: _307  and  _308
REMARK  113  A    between atoms: _311  and  _313
REMARK  114  A    between atoms: _313  and  _314
REMARK  115  A    between atoms: _313  and  _316
REMARK  116  A    between atoms: _316  and  _317
REMARK  117  A    between atoms: _327  and  _329
REMARK  118  A    between atoms: _329  and  _330
REMARK  119  A    between atoms: _329  and  _332
REMARK  120  A    between atoms: _332  and  _333
REMARK  121  A    between atoms: _338  and  _340
REMARK  122  A    between atoms: _340  and  _341
REMARK  123  A    between atoms: _340  and  _343
REMARK  124  A    between atoms: _343  and  _344
REMARK  125  A    between atoms: _348  and  ZN_456
REMARK  126  A    between atoms: _349  and  _351
REMARK  127  A    between atoms: _351  and  _352
REMARK  128  A    between atoms: _351  and  _354
REMARK  129  A    between atoms: _354  and  _355
REMARK  130  A    between atoms: _358  and  _360
REMARK  131  A    between atoms: _360  and  _361
REMARK  132  A    between atoms: _363  and  _365
REMARK  133  A    between atoms: _365  and  _366
REMARK  134  A    between atoms: _365  and  _368
REMARK  135  A    between atoms: _368  and  _369
REMARK  136  A    between atoms: _372  and  _374
REMARK  137  A    between atoms: _374  and  _375
REMARK  138  A    between atoms: _374  and  _377
REMARK  139  A    between atoms: _377  and  _378
REMARK  140  A    between atoms: _381  and  _383
REMARK  141  A    between atoms: _383  and  _384
REMARK  142  A    between atoms: _387  and  _389
REMARK  143  A    between atoms: _389  and  _390
REMARK  144  A    between atoms: _389  and  _392
REMARK  145  A    between atoms: _392  and  _393
REMARK  146  A    between atoms: _398  and  _399
REMARK  147  A    between atoms: _401  and  _403
REMARK  148  A    between atoms: _403  and  _404
REMARK  149  A    between atoms: _403  and  _406
REMARK  150  A    between atoms: _406  and  _407
REMARK  151  A    between atoms: _410  and  _412
REMARK  152  A    between atoms: _412  and  _413
REMARK  153  A    between atoms: _412  and  _415
REMARK  154  A    between atoms: _415  and  _416
REMARK  155  A    between atoms: _416  and  _417
REMARK  156  A    between atoms: _420  and  _422
REMARK  157  A    between atoms: _422  and  _423
REMARK  158  A    between atoms: _422  and  _425
REMARK  159  A    between atoms: _425  and  _426
REMARK  160  A    between atoms: _426  and  _427
REMARK  161  A    between atoms: _427  and  _428
REMARK  162  A    between atoms: _437  and  _439
REMARK  163  A    between atoms: _439  and  _440
REMARK  164  A    between atoms: _442  and  _444
REMARK  165  A    between atoms: _444  and  _445
REMARK  166  A    between atoms: _444  and  _447
REMARK  167  A    between atoms: _447  and  _448
REMARK  168  A    between atoms: _451  and  _453
REMARK  169  A    between atoms: _453  and  _454
REMARK                            x       y       z     vdW  Elec       q    Type
REMARK                         _______ _______ _______ _____ _____    ______ ____
ROOT
ATOM      1  O   HOH     1      23.529  66.301  18.506  0.00  0.00    +0.000 OA
ENDROOT
TORSDOF 0
REMARK  Name = ../refined-set-2016/2f7p/2f7p_pocket.pdb
REMARK  169 active torsions:
REMARK  status: ('A' for Active; 'I' for Inactive)
REMARK    1  A    between atoms: _1  and  _3
REMARK    2  A    between atoms: _14  and  _17
REMARK    3  A    between atoms: _17  and  _18
REMARK    4  A    between atoms: _25  and  _26
REMARK    5  A    between atoms: _33  and  _34
REMARK    6  A    between atoms: _39  and  _41
REMARK    7  A    between atoms: _41  and  _42
REMARK    8  A    between atoms: _44  and  _46
REMARK    9  A    between atoms: _46  and  _47
REMARK   10  A    between atoms: _46  and  _49
REMARK   11  A    between atoms: _49  and  _50
REMARK   12  A    between atoms: _60  and  _62
REMARK   13  A    between atoms: _62  and  _63
REMARK   14  A    between atoms: _62  and  _65
REMARK   15  A    between atoms: _65  and  _66
REMARK   16  A    between atoms: _69  and  _71
REMARK   17  A    between atoms: _71  and  _72
REMARK   18  A    between atoms: _71  and  _74
REMARK   19  A    between atoms: _74  and  _75
REMARK   20  A    between atoms: _80  and  _81
REMARK   21  A    between atoms: _83  and  _85
REMARK   22  A    between atoms: _85  and  _86
REMARK   23  A    between atoms: _85  and  _88
REMARK   24  A    between atoms: _88  and  _89
REMARK   25  A    between atoms: _89  and  _90
REMARK   26  A    between atoms: _93  and  _95
REMARK   27  A    between atoms: _95  and  _96
REMARK   28  A    between atoms: _95  and  _98
REMARK   29  A    between atoms: _98  and  _99
REMARK   30  A    between atoms: _99  and  _100
REMARK   31  A    between atoms: _102  and  _104
REMARK   32  A    between atoms: _104  and  _105
REMARK   33  A    between atoms: _104  and  _107
REMARK   34  A    between atoms: _107  and  _108
REMARK   35  A    between atoms: _111  and  _113
REMARK   36  A    between atoms: _113  and  _114
REMARK   37  A    between atoms: _113  and  _116
REMARK   38  A    between atoms: _116  and  _117
REMARK   39  A    between atoms: _117  and  _119
REMARK   40  A    between atoms: _119  and  ZN_456
REMARK   41  A    between atoms: _121  and  _122
REMARK   42  A    between atoms: _127  and  _129
REMARK   43  A    between atoms: _129  and  _130
REMARK   44  A    between atoms: _129  and  _132
REMARK   45  A    between atoms: _132  and  _133
REMARK   46  A    between atoms: _139  and  _141
REMARK   47  A    between atoms: _141  and  _142
REMARK   48  A    between atoms: _141  and  _144
REMARK   49  A    between atoms: _144  and  _145
REMARK   50  A    between atoms: _145  and  _146
REMARK   51  A    between atoms: _151  and  _153
REMARK   52  A    between atoms: _153  and  _154
REMARK   53  A    between atoms: _153  and  _156
REMARK   54  A    between atoms: _156  and  _157
REMARK   55  A    between atoms: _157  and  _158
REMARK   56  A    between atoms: _158  and  _159
REMARK   57  A    between atoms: _168  and  _170
REMARK   58  A    between atoms: _170  and  _171
REMARK   59  A    between atoms: _170  and  _173
REMARK   60  A    between atoms: _173  and  _174
REMARK   61  A    between atoms: _179  and  _180
REMARK   62  A    between atoms: _182  and  _184
REMARK   63  A    between atoms: _184  and  _185
REMARK   64  A    between atoms: _184  and  _187
REMARK   65  A    between atoms: _187  and  _188
REMARK   66  A    between atoms: _190  and  _192
REMARK   67  A    between atoms: _192  and  _193
REMARK   68  A    between atoms: _192  and  _195
REMARK   69  A    between atoms: _195  and  _196
REMARK   70  A    between atoms: _201  and  _202
REMARK   71  A    between atoms: _204  and  _206
REMARK   72  A    between atoms: _206  and  _207
REMARK   73  A    between atoms: _206  and  _209
REMARK   74  A    between atoms: _209  and  _210
REMARK   75  A    between atoms: _213  and  _215
REMARK   76  A    between atoms: _215  and  _216
REMARK   77  A    between atoms: _215  and  _218
REMARK   78  A    between atoms: _218  and  _219
REMARK   79  A    between atoms: _222  and  _224
REMARK   80  A    between atoms: _224  and  _225
REMARK   81  A    between atoms: _224  and  _227
REMARK   82  A    between atoms: _227  and  _228
REMARK   83  A    between atoms: _233  and  _235
REMARK   84  A    between atoms: _235  and  _236
REMARK   85  A    between atoms: _235  and  _238
REMARK   86  A    between atoms: _238  and  _239
REMARK   87  A    between atoms: _239  and  _240
REMARK   88  A    between atoms: _240  and  _241
REMARK   89  A    between atoms: _250  and  _252
REMARK   90  A    between atoms: _252  and  _253
REMARK   91  A    between atoms: _255  and  _257
REMARK   92  A    between atoms: _257  and  _258
REMARK   93  A    between atoms: _257  and  _260
REMARK   94  A    between atoms: _260  and  _261
REMARK   95  A    between atoms: _264  and  _266
REMARK   96  A    between atoms: _266  and  _267
REMARK   97  A    between atoms: _266  and  _269
REMARK   98  A    between atoms: _269  and  _270
REMARK   99  A    between atoms: _273  and  _275
REMARK  100  A    between atoms: _275  and  _276
REMARK  101  A    between atoms: _275  and  _278
REMARK  102  A    between atoms: _278  and  _279
REMARK  103  A    between atoms: _285  and  _287
REMARK  104  A    between atoms: _287  and  _288
REMARK  105  A    between atoms: _287  and  _290
REMARK  106  A    between atoms: _290  and  _291
REMARK  107  A    between atoms: _291  and  _292
REMARK  108  A    between atoms: _292  and  _293
REMARK  109  A    between atoms: _302  and  _304
REMARK  110  A    between atoms: _304  and  _305
REMARK  111  A    between atoms: _304  and  _307
REMARK  112  A    between atoms: _307  and  _308
REMARK  113  A    between atoms: _311  and  _313
REMARK  114  A    between atoms: _313  and  _314
REMARK  115  A    between atoms: _313  and  _316
REMARK  116  A    between atoms: _316  and  _317
REMARK  117  A    between atoms: _327  and  _329
REMARK  118  A    between atoms: _329  and  _330
REMARK  119  A    between atoms: _329  and  _332
REMARK  120  A    between atoms: _332  and  _333
REMARK  121  A    between atoms: _338  and  _340
REMARK  122  A    between atoms: _340  and  _341
REMARK  123  A    between atoms: _340  and  _343
REMARK  124  A    between atoms: _343  and  _344
REMARK  125  A    between atoms: _348  and  ZN_456
REMARK  126  A    between atoms: _349  and  _351
REMARK  127  A    between atoms: _351  and  _352
REMARK  128  A    between atoms: _351  and  _354
REMARK  129  A    between atoms: _354  and  _355
REMARK  130  A    between atoms: _358  and  _360
REMARK  131  A    between atoms: _360  and  _361
REMARK  132  A    between atoms: _363  and  _365
REMARK  133  A    between atoms: _365  and  _366
REMARK  134  A    between atoms: _365  and  _368
REMARK  135  A    between atoms: _368  and  _369
REMARK  136  A    between atoms: _372  and  _374
REMARK  137  A    between atoms: _374  and  _375
REMARK  138  A    between atoms: _374  and  _377
REMARK  139  A    between atoms: _377  and  _378
REMARK  140  A    between atoms: _381  and  _383
REMARK  141  A    between atoms: _383  and  _384
REMARK  142  A    between atoms: _387  and  _389
REMARK  143  A    between atoms: _389  and  _390
REMARK  144  A    between atoms: _389  and  _392
REMARK  145  A    between atoms: _392  and  _393
REMARK  146  A    between atoms: _398  and  _399
REMARK  147  A    between atoms: _401  and  _403
REMARK  148  A    between atoms: _403  and  _404
REMARK  149  A    between atoms: _403  and  _406
REMARK  150  A    between atoms: _406  and  _407
REMARK  151  A    between atoms: _410  and  _412
REMARK  152  A    between atoms: _412  and  _413
REMARK  153  A    between atoms: _412  and  _415
REMARK  154  A    between atoms: _415  and  _416
REMARK  155  A    between atoms: _416  and  _417
REMARK  156  A    between atoms: _420  and  _422
REMARK  157  A    between atoms: _422  and  _423
REMARK  158  A    between atoms: _422  and  _425
REMARK  159  A    between atoms: _425  and  _426
REMARK  160  A    between atoms: _426  and  _427
REMARK  161  A    between atoms: _427  and  _428
REMARK  162  A    between atoms: _437  and  _439
REMARK  163  A    between atoms: _439  and  _440
REMARK  164  A    between atoms: _442  and  _444
REMARK  165  A    between atoms: _444  and  _445
REMARK  166  A    between atoms: _444  and  _447
REMARK  167  A    between atoms: _447  and  _448
REMARK  168  A    between atoms: _451  and  _453
REMARK  169  A    between atoms: _453  and  _454
REMARK                            x       y       z     vdW  Elec       q    Type
REMARK                         _______ _______ _______ _____ _____    ______ ____
ROOT
ATOM      1  O   HOH     1      22.932  64.207  18.168  0.00  0.00    +0.000 OA
ENDROOT
TORSDOF 0
REMARK  Name = ../refined-set-2016/2f7p/2f7p_pocket.pdb
REMARK  169 active torsions:
REMARK  status: ('A' for Active; 'I' for Inactive)
REMARK    1  A    between atoms: _1  and  _3
REMARK    2  A    between atoms: _14  and  _17
REMARK    3  A    between atoms: _17  and  _18
REMARK    4  A    between atoms: _25  and  _26
REMARK    5  A    between atoms: _33  and  _34
REMARK    6  A    between atoms: _39  and  _41
REMARK    7  A    between atoms: _41  and  _42
REMARK    8  A    between atoms: _44  and  _46
REMARK    9  A    between atoms: _46  and  _47
REMARK   10  A    between atoms: _46  and  _49
REMARK   11  A    between atoms: _49  and  _50
REMARK   12  A    between atoms: _60  and  _62
REMARK   13  A    between atoms: _62  and  _63
REMARK   14  A    between atoms: _62  and  _65
REMARK   15  A    between atoms: _65  and  _66
REMARK   16  A    between atoms: _69  and  _71
REMARK   17  A    between atoms: _71  and  _72
REMARK   18  A    between atoms: _71  and  _74
REMARK   19  A    between atoms: _74  and  _75
REMARK   20  A    between atoms: _80  and  _81
REMARK   21  A    between atoms: _83  and  _85
REMARK   22  A    between atoms: _85  and  _86
REMARK   23  A    between atoms: _85  and  _88
REMARK   24  A    between atoms: _88  and  _89
REMARK   25  A    between atoms: _89  and  _90
REMARK   26  A    between atoms: _93  and  _95
REMARK   27  A    between atoms: _95  and  _96
REMARK   28  A    between atoms: _95  and  _98
REMARK   29  A    between atoms: _98  and  _99
REMARK   30  A    between atoms: _99  and  _100
REMARK   31  A    between atoms: _102  and  _104
REMARK   32  A    between atoms: _104  and  _105
REMARK   33  A    between atoms: _104  and  _107
REMARK   34  A    between atoms: _107  and  _108
REMARK   35  A    between atoms: _111  and  _113
REMARK   36  A    between atoms: _113  and  _114
REMARK   37  A    between atoms: _113  and  _116
REMARK   38  A    between atoms: _116  and  _117
REMARK   39  A    between atoms: _117  and  _119
REMARK   40  A    between atoms: _119  and  ZN_456
REMARK   41  A    between atoms: _121  and  _122
REMARK   42  A    between atoms: _127  and  _129
REMARK   43  A    between atoms: _129  and  _130
REMARK   44  A    between atoms: _129  and  _132
REMARK   45  A    between atoms: _132  and  _133
REMARK   46  A    between atoms: _139  and  _141
REMARK   47  A    between atoms: _141  and  _142
REMARK   48  A    between atoms: _141  and  _144
REMARK   49  A    between atoms: _144  and  _145
REMARK   50  A    between atoms: _145  and  _146
REMARK   51  A    between atoms: _151  and  _153
REMARK   52  A    between atoms: _153  and  _154
REMARK   53  A    between atoms: _153  and  _156
REMARK   54  A    between atoms: _156  and  _157
REMARK   55  A    between atoms: _157  and  _158
REMARK   56  A    between atoms: _158  and  _159
REMARK   57  A    between atoms: _168  and  _170
REMARK   58  A    between atoms: _170  and  _171
REMARK   59  A    between atoms: _170  and  _173
REMARK   60  A    between atoms: _173  and  _174
REMARK   61  A    between atoms: _179  and  _180
REMARK   62  A    between atoms: _182  and  _184
REMARK   63  A    between atoms: _184  and  _185
REMARK   64  A    between atoms: _184  and  _187
REMARK   65  A    between atoms: _187  and  _188
REMARK   66  A    between atoms: _190  and  _192
REMARK   67  A    between atoms: _192  and  _193
REMARK   68  A    between atoms: _192  and  _195
REMARK   69  A    between atoms: _195  and  _196
REMARK   70  A    between atoms: _201  and  _202
REMARK   71  A    between atoms: _204  and  _206
REMARK   72  A    between atoms: _206  and  _207
REMARK   73  A    between atoms: _206  and  _209
REMARK   74  A    between atoms: _209  and  _210
REMARK   75  A    between atoms: _213  and  _215
REMARK   76  A    between atoms: _215  and  _216
REMARK   77  A    between atoms: _215  and  _218
REMARK   78  A    between atoms: _218  and  _219
REMARK   79  A    between atoms: _222  and  _224
REMARK   80  A    between atoms: _224  and  _225
REMARK   81  A    between atoms: _224  and  _227
REMARK   82  A    between atoms: _227  and  _228
REMARK   83  A    between atoms: _233  and  _235
REMARK   84  A    between atoms: _235  and  _236
REMARK   85  A    between atoms: _235  and  _238
REMARK   86  A    between atoms: _238  and  _239
REMARK   87  A    between atoms: _239  and  _240
REMARK   88  A    between atoms: _240  and  _241
REMARK   89  A    between atoms: _250  and  _252
REMARK   90  A    between atoms: _252  and  _253
REMARK   91  A    between atoms: _255  and  _257
REMARK   92  A    between atoms: _257  and  _258
REMARK   93  A    between atoms: _257  and  _260
REMARK   94  A    between atoms: _260  and  _261
REMARK   95  A    between atoms: _264  and  _266
REMARK   96  A    between atoms: _266  and  _267
REMARK   97  A    between atoms: _266  and  _269
REMARK   98  A    between atoms: _269  and  _270
REMARK   99  A    between atoms: _273  and  _275
REMARK  100  A    between atoms: _275  and  _276
REMARK  101  A    between atoms: _275  and  _278
REMARK  102  A    between atoms: _278  and  _279
REMARK  103  A    between atoms: _285  and  _287
REMARK  104  A    between atoms: _287  and  _288
REMARK  105  A    between atoms: _287  and  _290
REMARK  106  A    between atoms: _290  and  _291
REMARK  107  A    between atoms: _291  and  _292
REMARK  108  A    between atoms: _292  and  _293
REMARK  109  A    between atoms: _302  and  _304
REMARK  110  A    between atoms: _304  and  _305
REMARK  111  A    between atoms: _304  and  _307
REMARK  112  A    between atoms: _307  and  _308
REMARK  113  A    between atoms: _311  and  _313
REMARK  114  A    between atoms: _313  and  _314
REMARK  115  A    between atoms: _313  and  _316
REMARK  116  A    between atoms: _316  and  _317
REMARK  117  A    between atoms: _327  and  _329
REMARK  118  A    between atoms: _329  and  _330
REMARK  119  A    between atoms: _329  and  _332
REMARK  120  A    between atoms: _332  and  _333
REMARK  121  A    between atoms: _338  and  _340
REMARK  122  A    between atoms: _340  and  _341
REMARK  123  A    between atoms: _340  and  _343
REMARK  124  A    between atoms: _343  and  _344
REMARK  125  A    between atoms: _348  and  ZN_456
REMARK  126  A    between atoms: _349  and  _351
REMARK  127  A    between atoms: _351  and  _352
REMARK  128  A    between atoms: _351  and  _354
REMARK  129  A    between atoms: _354  and  _355
REMARK  130  A    between atoms: _358  and  _360
REMARK  131  A    between atoms: _360  and  _361
REMARK  132  A    between atoms: _363  and  _365
REMARK  133  A    between atoms: _365  and  _366
REMARK  134  A    between atoms: _365  and  _368
REMARK  135  A    between atoms: _368  and  _369
REMARK  136  A    between atoms: _372  and  _374
REMARK  137  A    between atoms: _374  and  _375
REMARK  138  A    between atoms: _374  and  _377
REMARK  139  A    between atoms: _377  and  _378
REMARK  140  A    between atoms: _381  and  _383
REMARK  141  A    between atoms: _383  and  _384
REMARK  142  A    between atoms: _387  and  _389
REMARK  143  A    between atoms: _389  and  _390
REMARK  144  A    between atoms: _389  and  _392
REMARK  145  A    between atoms: _392  and  _393
REMARK  146  A    between atoms: _398  and  _399
REMARK  147  A    between atoms: _401  and  _403
REMARK  148  A    between atoms: _403  and  _404
REMARK  149  A    between atoms: _403  and  _406
REMARK  150  A    between atoms: _406  and  _407
REMARK  151  A    between atoms: _410  and  _412
REMARK  152  A    between atoms: _412  and  _413
REMARK  153  A    between atoms: _412  and  _415
REMARK  154  A    between atoms: _415  and  _416
REMARK  155  A    between atoms: _416  and  _417
REMARK  156  A    between atoms: _420  and  _422
REMARK  157  A    between atoms: _422  and  _423
REMARK  158  A    between atoms: _422  and  _425
REMARK  159  A    between atoms: _425  and  _426
REMARK  160  A    between atoms: _426  and  _427
REMARK  161  A    between atoms: _427  and  _428
REMARK  162  A    between atoms: _437  and  _439
REMARK  163  A    between atoms: _439  and  _440
REMARK  164  A    between atoms: _442  and  _444
REMARK  165  A    between atoms: _444  and  _445
REMARK  166  A    between atoms: _444  and  _447
REMARK  167  A    between atoms: _447  and  _448
REMARK  168  A    between atoms: _451  and  _453
REMARK  169  A    between atoms: _453  and  _454
REMARK                            x       y       z     vdW  Elec       q    Type
REMARK                         _______ _______ _______ _____ _____    ______ ____
ROOT
ATOM      1  O   HOH     1      22.640  62.628  15.957  0.00  0.00    +0.000 OA
ENDROOT
TORSDOF 0
REMARK  Name = ../refined-set-2016/2f7p/2f7p_pocket.pdb
REMARK  169 active torsions:
REMARK  status: ('A' for Active; 'I' for Inactive)
REMARK    1  A    between atoms: _1  and  _3
REMARK    2  A    between atoms: _14  and  _17
REMARK    3  A    between atoms: _17  and  _18
REMARK    4  A    between atoms: _25  and  _26
REMARK    5  A    between atoms: _33  and  _34
REMARK    6  A    between atoms: _39  and  _41
REMARK    7  A    between atoms: _41  and  _42
REMARK    8  A    between atoms: _44  and  _46
REMARK    9  A    between atoms: _46  and  _47
REMARK   10  A    between atoms: _46  and  _49
REMARK   11  A    between atoms: _49  and  _50
REMARK   12  A    between atoms: _60  and  _62
REMARK   13  A    between atoms: _62  and  _63
REMARK   14  A    between atoms: _62  and  _65
REMARK   15  A    between atoms: _65  and  _66
REMARK   16  A    between atoms: _69  and  _71
REMARK   17  A    between atoms: _71  and  _72
REMARK   18  A    between atoms: _71  and  _74
REMARK   19  A    between atoms: _74  and  _75
REMARK   20  A    between atoms: _80  and  _81
REMARK   21  A    between atoms: _83  and  _85
REMARK   22  A    between atoms: _85  and  _86
REMARK   23  A    between atoms: _85  and  _88
REMARK   24  A    between atoms: _88  and  _89
REMARK   25  A    between atoms: _89  and  _90
REMARK   26  A    between atoms: _93  and  _95
REMARK   27  A    between atoms: _95  and  _96
REMARK   28  A    between atoms: _95  and  _98
REMARK   29  A    between atoms: _98  and  _99
REMARK   30  A    between atoms: _99  and  _100
REMARK   31  A    between atoms: _102  and  _104
REMARK   32  A    between atoms: _104  and  _105
REMARK   33  A    between atoms: _104  and  _107
REMARK   34  A    between atoms: _107  and  _108
REMARK   35  A    between atoms: _111  and  _113
REMARK   36  A    between atoms: _113  and  _114
REMARK   37  A    between atoms: _113  and  _116
REMARK   38  A    between atoms: _116  and  _117
REMARK   39  A    between atoms: _117  and  _119
REMARK   40  A    between atoms: _119  and  ZN_456
REMARK   41  A    between atoms: _121  and  _122
REMARK   42  A    between atoms: _127  and  _129
REMARK   43  A    between atoms: _129  and  _130
REMARK   44  A    between atoms: _129  and  _132
REMARK   45  A    between atoms: _132  and  _133
REMARK   46  A    between atoms: _139  and  _141
REMARK   47  A    between atoms: _141  and  _142
REMARK   48  A    between atoms: _141  and  _144
REMARK   49  A    between atoms: _144  and  _145
REMARK   50  A    between atoms: _145  and  _146
REMARK   51  A    between atoms: _151  and  _153
REMARK   52  A    between atoms: _153  and  _154
REMARK   53  A    between atoms: _153  and  _156
REMARK   54  A    between atoms: _156  and  _157
REMARK   55  A    between atoms: _157  and  _158
REMARK   56  A    between atoms: _158  and  _159
REMARK   57  A    between atoms: _168  and  _170
REMARK   58  A    between atoms: _170  and  _171
REMARK   59  A    between atoms: _170  and  _173
REMARK   60  A    between atoms: _173  and  _174
REMARK   61  A    between atoms: _179  and  _180
REMARK   62  A    between atoms: _182  and  _184
REMARK   63  A    between atoms: _184  and  _185
REMARK   64  A    between atoms: _184  and  _187
REMARK   65  A    between atoms: _187  and  _188
REMARK   66  A    between atoms: _190  and  _192
REMARK   67  A    between atoms: _192  and  _193
REMARK   68  A    between atoms: _192  and  _195
REMARK   69  A    between atoms: _195  and  _196
REMARK   70  A    between atoms: _201  and  _202
REMARK   71  A    between atoms: _204  and  _206
REMARK   72  A    between atoms: _206  and  _207
REMARK   73  A    between atoms: _206  and  _209
REMARK   74  A    between atoms: _209  and  _210
REMARK   75  A    between atoms: _213  and  _215
REMARK   76  A    between atoms: _215  and  _216
REMARK   77  A    between atoms: _215  and  _218
REMARK   78  A    between atoms: _218  and  _219
REMARK   79  A    between atoms: _222  and  _224
REMARK   80  A    between atoms: _224  and  _225
REMARK   81  A    between atoms: _224  and  _227
REMARK   82  A    between atoms: _227  and  _228
REMARK   83  A    between atoms: _233  and  _235
REMARK   84  A    between atoms: _235  and  _236
REMARK   85  A    between atoms: _235  and  _238
REMARK   86  A    between atoms: _238  and  _239
REMARK   87  A    between atoms: _239  and  _240
REMARK   88  A    between atoms: _240  and  _241
REMARK   89  A    between atoms: _250  and  _252
REMARK   90  A    between atoms: _252  and  _253
REMARK   91  A    between atoms: _255  and  _257
REMARK   92  A    between atoms: _257  and  _258
REMARK   93  A    between atoms: _257  and  _260
REMARK   94  A    between atoms: _260  and  _261
REMARK   95  A    between atoms: _264  and  _266
REMARK   96  A    between atoms: _266  and  _267
REMARK   97  A    between atoms: _266  and  _269
REMARK   98  A    between atoms: _269  and  _270
REMARK   99  A    between atoms: _273  and  _275
REMARK  100  A    between atoms: _275  and  _276
REMARK  101  A    between atoms: _275  and  _278
REMARK  102  A    between atoms: _278  and  _279
REMARK  103  A    between atoms: _285  and  _287
REMARK  104  A    between atoms: _287  and  _288
REMARK  105  A    between atoms: _287  and  _290
REMARK  106  A    between atoms: _290  and  _291
REMARK  107  A    between atoms: _291  and  _292
REMARK  108  A    between atoms: _292  and  _293
REMARK  109  A    between atoms: _302  and  _304
REMARK  110  A    between atoms: _304  and  _305
REMARK  111  A    between atoms: _304  and  _307
REMARK  112  A    between atoms: _307  and  _308
REMARK  113  A    between atoms: _311  and  _313
REMARK  114  A    between atoms: _313  and  _314
REMARK  115  A    between atoms: _313  and  _316
REMARK  116  A    between atoms: _316  and  _317
REMARK  117  A    between atoms: _327  and  _329
REMARK  118  A    between atoms: _329  and  _330
REMARK  119  A    between atoms: _329  and  _332
REMARK  120  A    between atoms: _332  and  _333
REMARK  121  A    between atoms: _338  and  _340
REMARK  122  A    between atoms: _340  and  _341
REMARK  123  A    between atoms: _340  and  _343
REMARK  124  A    between atoms: _343  and  _344
REMARK  125  A    between atoms: _348  and  ZN_456
REMARK  126  A    between atoms: _349  and  _351
REMARK  127  A    between atoms: _351  and  _352
REMARK  128  A    between atoms: _351  and  _354
REMARK  129  A    between atoms: _354  and  _355
REMARK  130  A    between atoms: _358  and  _360
REMARK  131  A    between atoms: _360  and  _361
REMARK  132  A    between atoms: _363  and  _365
REMARK  133  A    between atoms: _365  and  _366
REMARK  134  A    between atoms: _365  and  _368
REMARK  135  A    between atoms: _368  and  _369
REMARK  136  A    between atoms: _372  and  _374
REMARK  137  A    between atoms: _374  and  _375
REMARK  138  A    between atoms: _374  and  _377
REMARK  139  A    between atoms: _377  and  _378
REMARK  140  A    between atoms: _381  and  _383
REMARK  141  A    between atoms: _383  and  _384
REMARK  142  A    between atoms: _387  and  _389
REMARK  143  A    between atoms: _389  and  _390
REMARK  144  A    between atoms: _389  and  _392
REMARK  145  A    between atoms: _392  and  _393
REMARK  146  A    between atoms: _398  and  _399
REMARK  147  A    between atoms: _401  and  _403
REMARK  148  A    between atoms: _403  and  _404
REMARK  149  A    between atoms: _403  and  _406
REMARK  150  A    between atoms: _406  and  _407
REMARK  151  A    between atoms: _410  and  _412
REMARK  152  A    between atoms: _412  and  _413
REMARK  153  A    between atoms: _412  and  _415
REMARK  154  A    between atoms: _415  and  _416
REMARK  155  A    between atoms: _416  and  _417
REMARK  156  A    between atoms: _420  and  _422
REMARK  157  A    between atoms: _422  and  _423
REMARK  158  A    between atoms: _422  and  _425
REMARK  159  A    between atoms: _425  and  _426
REMARK  160  A    between atoms: _426  and  _427
REMARK  161  A    between atoms: _427  and  _428
REMARK  162  A    between atoms: _437  and  _439
REMARK  163  A    between atoms: _439  and  _440
REMARK  164  A    between atoms: _442  and  _444
REMARK  165  A    between atoms: _444  and  _445
REMARK  166  A    between atoms: _444  and  _447
REMARK  167  A    between atoms: _447  and  _448
REMARK  168  A    between atoms: _451  and  _453
REMARK  169  A    between atoms: _453  and  _454
REMARK                            x       y       z     vdW  Elec       q    Type
REMARK                         _______ _______ _______ _____ _____    ______ ____
ROOT
ATOM      1  O   HOH     1      21.395  63.882  14.430  0.00  0.00    +0.000 OA
ENDROOT
TORSDOF 0
REMARK  Name = ../refined-set-2016/2f7p/2f7p_pocket.pdb
REMARK  169 active torsions:
REMARK  status: ('A' for Active; 'I' for Inactive)
REMARK    1  A    between atoms: _1  and  _3
REMARK    2  A    between atoms: _14  and  _17
REMARK    3  A    between atoms: _17  and  _18
REMARK    4  A    between atoms: _25  and  _26
REMARK    5  A    between atoms: _33  and  _34
REMARK    6  A    between atoms: _39  and  _41
REMARK    7  A    between atoms: _41  and  _42
REMARK    8  A    between atoms: _44  and  _46
REMARK    9  A    between atoms: _46  and  _47
REMARK   10  A    between atoms: _46  and  _49
REMARK   11  A    between atoms: _49  and  _50
REMARK   12  A    between atoms: _60  and  _62
REMARK   13  A    between atoms: _62  and  _63
REMARK   14  A    between atoms: _62  and  _65
REMARK   15  A    between atoms: _65  and  _66
REMARK   16  A    between atoms: _69  and  _71
REMARK   17  A    between atoms: _71  and  _72
REMARK   18  A    between atoms: _71  and  _74
REMARK   19  A    between atoms: _74  and  _75
REMARK   20  A    between atoms: _80  and  _81
REMARK   21  A    between atoms: _83  and  _85
REMARK   22  A    between atoms: _85  and  _86
REMARK   23  A    between atoms: _85  and  _88
REMARK   24  A    between atoms: _88  and  _89
REMARK   25  A    between atoms: _89  and  _90
REMARK   26  A    between atoms: _93  and  _95
REMARK   27  A    between atoms: _95  and  _96
REMARK   28  A    between atoms: _95  and  _98
REMARK   29  A    between atoms: _98  and  _99
REMARK   30  A    between atoms: _99  and  _100
REMARK   31  A    between atoms: _102  and  _104
REMARK   32  A    between atoms: _104  and  _105
REMARK   33  A    between atoms: _104  and  _107
REMARK   34  A    between atoms: _107  and  _108
REMARK   35  A    between atoms: _111  and  _113
REMARK   36  A    between atoms: _113  and  _114
REMARK   37  A    between atoms: _113  and  _116
REMARK   38  A    between atoms: _116  and  _117
REMARK   39  A    between atoms: _117  and  _119
REMARK   40  A    between atoms: _119  and  ZN_456
REMARK   41  A    between atoms: _121  and  _122
REMARK   42  A    between atoms: _127  and  _129
REMARK   43  A    between atoms: _129  and  _130
REMARK   44  A    between atoms: _129  and  _132
REMARK   45  A    between atoms: _132  and  _133
REMARK   46  A    between atoms: _139  and  _141
REMARK   47  A    between atoms: _141  and  _142
REMARK   48  A    between atoms: _141  and  _144
REMARK   49  A    between atoms: _144  and  _145
REMARK   50  A    between atoms: _145  and  _146
REMARK   51  A    between atoms: _151  and  _153
REMARK   52  A    between atoms: _153  and  _154
REMARK   53  A    between atoms: _153  and  _156
REMARK   54  A    between atoms: _156  and  _157
REMARK   55  A    between atoms: _157  and  _158
REMARK   56  A    between atoms: _158  and  _159
REMARK   57  A    between atoms: _168  and  _170
REMARK   58  A    between atoms: _170  and  _171
REMARK   59  A    between atoms: _170  and  _173
REMARK   60  A    between atoms: _173  and  _174
REMARK   61  A    between atoms: _179  and  _180
REMARK   62  A    between atoms: _182  and  _184
REMARK   63  A    between atoms: _184  and  _185
REMARK   64  A    between atoms: _184  and  _187
REMARK   65  A    between atoms: _187  and  _188
REMARK   66  A    between atoms: _190  and  _192
REMARK   67  A    between atoms: _192  and  _193
REMARK   68  A    between atoms: _192  and  _195
REMARK   69  A    between atoms: _195  and  _196
REMARK   70  A    between atoms: _201  and  _202
REMARK   71  A    between atoms: _204  and  _206
REMARK   72  A    between atoms: _206  and  _207
REMARK   73  A    between atoms: _206  and  _209
REMARK   74  A    between atoms: _209  and  _210
REMARK   75  A    between atoms: _213  and  _215
REMARK   76  A    between atoms: _215  and  _216
REMARK   77  A    between atoms: _215  and  _218
REMARK   78  A    between atoms: _218  and  _219
REMARK   79  A    between atoms: _222  and  _224
REMARK   80  A    between atoms: _224  and  _225
REMARK   81  A    between atoms: _224  and  _227
REMARK   82  A    between atoms: _227  and  _228
REMARK   83  A    between atoms: _233  and  _235
REMARK   84  A    between atoms: _235  and  _236
REMARK   85  A    between atoms: _235  and  _238
REMARK   86  A    between atoms: _238  and  _239
REMARK   87  A    between atoms: _239  and  _240
REMARK   88  A    between atoms: _240  and  _241
REMARK   89  A    between atoms: _250  and  _252
REMARK   90  A    between atoms: _252  and  _253
REMARK   91  A    between atoms: _255  and  _257
REMARK   92  A    between atoms: _257  and  _258
REMARK   93  A    between atoms: _257  and  _260
REMARK   94  A    between atoms: _260  and  _261
REMARK   95  A    between atoms: _264  and  _266
REMARK   96  A    between atoms: _266  and  _267
REMARK   97  A    between atoms: _266  and  _269
REMARK   98  A    between atoms: _269  and  _270
REMARK   99  A    between atoms: _273  and  _275
REMARK  100  A    between atoms: _275  and  _276
REMARK  101  A    between atoms: _275  and  _278
REMARK  102  A    between atoms: _278  and  _279
REMARK  103  A    between atoms: _285  and  _287
REMARK  104  A    between atoms: _287  and  _288
REMARK  105  A    between atoms: _287  and  _290
REMARK  106  A    between atoms: _290  and  _291
REMARK  107  A    between atoms: _291  and  _292
REMARK  108  A    between atoms: _292  and  _293
REMARK  109  A    between atoms: _302  and  _304
REMARK  110  A    between atoms: _304  and  _305
REMARK  111  A    between atoms: _304  and  _307
REMARK  112  A    between atoms: _307  and  _308
REMARK  113  A    between atoms: _311  and  _313
REMARK  114  A    between atoms: _313  and  _314
REMARK  115  A    between atoms: _313  and  _316
REMARK  116  A    between atoms: _316  and  _317
REMARK  117  A    between atoms: _327  and  _329
REMARK  118  A    between atoms: _329  and  _330
REMARK  119  A    between atoms: _329  and  _332
REMARK  120  A    between atoms: _332  and  _333
REMARK  121  A    between atoms: _338  and  _340
REMARK  122  A    between atoms: _340  and  _341
REMARK  123  A    between atoms: _340  and  _343
REMARK  124  A    between atoms: _343  and  _344
REMARK  125  A    between atoms: _348  and  ZN_456
REMARK  126  A    between atoms: _349  and  _351
REMARK  127  A    between atoms: _351  and  _352
REMARK  128  A    between atoms: _351  and  _354
REMARK  129  A    between atoms: _354  and  _355
REMARK  130  A    between atoms: _358  and  _360
REMARK  131  A    between atoms: _360  and  _361
REMARK  132  A    between atoms: _363  and  _365
REMARK  133  A    between atoms: _365  and  _366
REMARK  134  A    between atoms: _365  and  _368
REMARK  135  A    between atoms: _368  and  _369
REMARK  136  A    between atoms: _372  and  _374
REMARK  137  A    between atoms: _374  and  _375
REMARK  138  A    between atoms: _374  and  _377
REMARK  139  A    between atoms: _377  and  _378
REMARK  140  A    between atoms: _381  and  _383
REMARK  141  A    between atoms: _383  and  _384
REMARK  142  A    between atoms: _387  and  _389
REMARK  143  A    between atoms: _389  and  _390
REMARK  144  A    between atoms: _389  and  _392
REMARK  145  A    between atoms: _392  and  _393
REMARK  146  A    between atoms: _398  and  _399
REMARK  147  A    between atoms: _401  and  _403
REMARK  148  A    between atoms: _403  and  _404
REMARK  149  A    between atoms: _403  and  _406
REMARK  150  A    between atoms: _406  and  _407
REMARK  151  A    between atoms: _410  and  _412
REMARK  152  A    between atoms: _412  and  _413
REMARK  153  A    between atoms: _412  and  _415
REMARK  154  A    between atoms: _415  and  _416
REMARK  155  A    between atoms: _416  and  _417
REMARK  156  A    between atoms: _420  and  _422
REMARK  157  A    between atoms: _422  and  _423
REMARK  158  A    between atoms: _422  and  _425
REMARK  159  A    between atoms: _425  and  _426
REMARK  160  A    between atoms: _426  and  _427
REMARK  161  A    between atoms: _427  and  _428
REMARK  162  A    between atoms: _437  and  _439
REMARK  163  A    between atoms: _439  and  _440
REMARK  164  A    between atoms: _442  and  _444
REMARK  165  A    between atoms: _444  and  _445
REMARK  166  A    between atoms: _444  and  _447
REMARK  167  A    between atoms: _447  and  _448
REMARK  168  A    between atoms: _451  and  _453
REMARK  169  A    between atoms: _453  and  _454
REMARK                            x       y       z     vdW  Elec       q    Type
REMARK                         _______ _______ _______ _____ _____    ______ ____
ROOT
ATOM      1  O   HOH     1      26.098  62.664  10.462  0.00  0.00    +0.000 OA
ENDROOT
TORSDOF 0
REMARK  Name = ../refined-set-2016/2f7p/2f7p_pocket.pdb
REMARK  169 active torsions:
REMARK  status: ('A' for Active; 'I' for Inactive)
REMARK    1  A    between atoms: _1  and  _3
REMARK    2  A    between atoms: _14  and  _17
REMARK    3  A    between atoms: _17  and  _18
REMARK    4  A    between atoms: _25  and  _26
REMARK    5  A    between atoms: _33  and  _34
REMARK    6  A    between atoms: _39  and  _41
REMARK    7  A    between atoms: _41  and  _42
REMARK    8  A    between atoms: _44  and  _46
REMARK    9  A    between atoms: _46  and  _47
REMARK   10  A    between atoms: _46  and  _49
REMARK   11  A    between atoms: _49  and  _50
REMARK   12  A    between atoms: _60  and  _62
REMARK   13  A    between atoms: _62  and  _63
REMARK   14  A    between atoms: _62  and  _65
REMARK   15  A    between atoms: _65  and  _66
REMARK   16  A    between atoms: _69  and  _71
REMARK   17  A    between atoms: _71  and  _72
REMARK   18  A    between atoms: _71  and  _74
REMARK   19  A    between atoms: _74  and  _75
REMARK   20  A    between atoms: _80  and  _81
REMARK   21  A    between atoms: _83  and  _85
REMARK   22  A    between atoms: _85  and  _86
REMARK   23  A    between atoms: _85  and  _88
REMARK   24  A    between atoms: _88  and  _89
REMARK   25  A    between atoms: _89  and  _90
REMARK   26  A    between atoms: _93  and  _95
REMARK   27  A    between atoms: _95  and  _96
REMARK   28  A    between atoms: _95  and  _98
REMARK   29  A    between atoms: _98  and  _99
REMARK   30  A    between atoms: _99  and  _100
REMARK   31  A    between atoms: _102  and  _104
REMARK   32  A    between atoms: _104  and  _105
REMARK   33  A    between atoms: _104  and  _107
REMARK   34  A    between atoms: _107  and  _108
REMARK   35  A    between atoms: _111  and  _113
REMARK   36  A    between atoms: _113  and  _114
REMARK   37  A    between atoms: _113  and  _116
REMARK   38  A    between atoms: _116  and  _117
REMARK   39  A    between atoms: _117  and  _119
REMARK   40  A    between atoms: _119  and  ZN_456
REMARK   41  A    between atoms: _121  and  _122
REMARK   42  A    between atoms: _127  and  _129
REMARK   43  A    between atoms: _129  and  _130
REMARK   44  A    between atoms: _129  and  _132
REMARK   45  A    between atoms: _132  and  _133
REMARK   46  A    between atoms: _139  and  _141
REMARK   47  A    between atoms: _141  and  _142
REMARK   48  A    between atoms: _141  and  _144
REMARK   49  A    between atoms: _144  and  _145
REMARK   50  A    between atoms: _145  and  _146
REMARK   51  A    between atoms: _151  and  _153
REMARK   52  A    between atoms: _153  and  _154
REMARK   53  A    between atoms: _153  and  _156
REMARK   54  A    between atoms: _156  and  _157
REMARK   55  A    between atoms: _157  and  _158
REMARK   56  A    between atoms: _158  and  _159
REMARK   57  A    between atoms: _168  and  _170
REMARK   58  A    between atoms: _170  and  _171
REMARK   59  A    between atoms: _170  and  _173
REMARK   60  A    between atoms: _173  and  _174
REMARK   61  A    between atoms: _179  and  _180
REMARK   62  A    between atoms: _182  and  _184
REMARK   63  A    between atoms: _184  and  _185
REMARK   64  A    between atoms: _184  and  _187
REMARK   65  A    between atoms: _187  and  _188
REMARK   66  A    between atoms: _190  and  _192
REMARK   67  A    between atoms: _192  and  _193
REMARK   68  A    between atoms: _192  and  _195
REMARK   69  A    between atoms: _195  and  _196
REMARK   70  A    between atoms: _201  and  _202
REMARK   71  A    between atoms: _204  and  _206
REMARK   72  A    between atoms: _206  and  _207
REMARK   73  A    between atoms: _206  and  _209
REMARK   74  A    between atoms: _209  and  _210
REMARK   75  A    between atoms: _213  and  _215
REMARK   76  A    between atoms: _215  and  _216
REMARK   77  A    between atoms: _215  and  _218
REMARK   78  A    between atoms: _218  and  _219
REMARK   79  A    between atoms: _222  and  _224
REMARK   80  A    between atoms: _224  and  _225
REMARK   81  A    between atoms: _224  and  _227
REMARK   82  A    between atoms: _227  and  _228
REMARK   83  A    between atoms: _233  and  _235
REMARK   84  A    between atoms: _235  and  _236
REMARK   85  A    between atoms: _235  and  _238
REMARK   86  A    between atoms: _238  and  _239
REMARK   87  A    between atoms: _239  and  _240
REMARK   88  A    between atoms: _240  and  _241
REMARK   89  A    between atoms: _250  and  _252
REMARK   90  A    between atoms: _252  and  _253
REMARK   91  A    between atoms: _255  and  _257
REMARK   92  A    between atoms: _257  and  _258
REMARK   93  A    between atoms: _257  and  _260
REMARK   94  A    between atoms: _260  and  _261
REMARK   95  A    between atoms: _264  and  _266
REMARK   96  A    between atoms: _266  and  _267
REMARK   97  A    between atoms: _266  and  _269
REMARK   98  A    between atoms: _269  and  _270
REMARK   99  A    between atoms: _273  and  _275
REMARK  100  A    between atoms: _275  and  _276
REMARK  101  A    between atoms: _275  and  _278
REMARK  102  A    between atoms: _278  and  _279
REMARK  103  A    between atoms: _285  and  _287
REMARK  104  A    between atoms: _287  and  _288
REMARK  105  A    between atoms: _287  and  _290
REMARK  106  A    between atoms: _290  and  _291
REMARK  107  A    between atoms: _291  and  _292
REMARK  108  A    between atoms: _292  and  _293
REMARK  109  A    between atoms: _302  and  _304
REMARK  110  A    between atoms: _304  and  _305
REMARK  111  A    between atoms: _304  and  _307
REMARK  112  A    between atoms: _307  and  _308
REMARK  113  A    between atoms: _311  and  _313
REMARK  114  A    between atoms: _313  and  _314
REMARK  115  A    between atoms: _313  and  _316
REMARK  116  A    between atoms: _316  and  _317
REMARK  117  A    between atoms: _327  and  _329
REMARK  118  A    between atoms: _329  and  _330
REMARK  119  A    between atoms: _329  and  _332
REMARK  120  A    between atoms: _332  and  _333
REMARK  121  A    between atoms: _338  and  _340
REMARK  122  A    between atoms: _340  and  _341
REMARK  123  A    between atoms: _340  and  _343
REMARK  124  A    between atoms: _343  and  _344
REMARK  125  A    between atoms: _348  and  ZN_456
REMARK  126  A    between atoms: _349  and  _351
REMARK  127  A    between atoms: _351  and  _352
REMARK  128  A    between atoms: _351  and  _354
REMARK  129  A    between atoms: _354  and  _355
REMARK  130  A    between atoms: _358  and  _360
REMARK  131  A    between atoms: _360  and  _361
REMARK  132  A    between atoms: _363  and  _365
REMARK  133  A    between atoms: _365  and  _366
REMARK  134  A    between atoms: _365  and  _368
REMARK  135  A    between atoms: _368  and  _369
REMARK  136  A    between atoms: _372  and  _374
REMARK  137  A    between atoms: _374  and  _375
REMARK  138  A    between atoms: _374  and  _377
REMARK  139  A    between atoms: _377  and  _378
REMARK  140  A    between atoms: _381  and  _383
REMARK  141  A    between atoms: _383  and  _384
REMARK  142  A    between atoms: _387  and  _389
REMARK  143  A    between atoms: _389  and  _390
REMARK  144  A    between atoms: _389  and  _392
REMARK  145  A    between atoms: _392  and  _393
REMARK  146  A    between atoms: _398  and  _399
REMARK  147  A    between atoms: _401  and  _403
REMARK  148  A    between atoms: _403  and  _404
REMARK  149  A    between atoms: _403  and  _406
REMARK  150  A    between atoms: _406  and  _407
REMARK  151  A    between atoms: _410  and  _412
REMARK  152  A    between atoms: _412  and  _413
REMARK  153  A    between atoms: _412  and  _415
REMARK  154  A    between atoms: _415  and  _416
REMARK  155  A    between atoms: _416  and  _417
REMARK  156  A    between atoms: _420  and  _422
REMARK  157  A    between atoms: _422  and  _423
REMARK  158  A    between atoms: _422  and  _425
REMARK  159  A    between atoms: _425  and  _426
REMARK  160  A    between atoms: _426  and  _427
REMARK  161  A    between atoms: _427  and  _428
REMARK  162  A    between atoms: _437  and  _439
REMARK  163  A    between atoms: _439  and  _440
REMARK  164  A    between atoms: _442  and  _444
REMARK  165  A    between atoms: _444  and  _445
REMARK  166  A    between atoms: _444  and  _447
REMARK  167  A    between atoms: _447  and  _448
REMARK  168  A    between atoms: _451  and  _453
REMARK  169  A    between atoms: _453  and  _454
REMARK                            x       y       z     vdW  Elec       q    Type
REMARK                         _______ _______ _______ _____ _____    ______ ____
ROOT
ATOM      1  O   HOH     1      27.674  60.817  10.421  0.00  0.00    +0.000 OA
ENDROOT
TORSDOF 0
REMARK  Name = ../refined-set-2016/2f7p/2f7p_pocket.pdb
REMARK  169 active torsions:
REMARK  status: ('A' for Active; 'I' for Inactive)
REMARK    1  A    between atoms: _1  and  _3
REMARK    2  A    between atoms: _14  and  _17
REMARK    3  A    between atoms: _17  and  _18
REMARK    4  A    between atoms: _25  and  _26
REMARK    5  A    between atoms: _33  and  _34
REMARK    6  A    between atoms: _39  and  _41
REMARK    7  A    between atoms: _41  and  _42
REMARK    8  A    between atoms: _44  and  _46
REMARK    9  A    between atoms: _46  and  _47
REMARK   10  A    between atoms: _46  and  _49
REMARK   11  A    between atoms: _49  and  _50
REMARK   12  A    between atoms: _60  and  _62
REMARK   13  A    between atoms: _62  and  _63
REMARK   14  A    between atoms: _62  and  _65
REMARK   15  A    between atoms: _65  and  _66
REMARK   16  A    between atoms: _69  and  _71
REMARK   17  A    between atoms: _71  and  _72
REMARK   18  A    between atoms: _71  and  _74
REMARK   19  A    between atoms: _74  and  _75
REMARK   20  A    between atoms: _80  and  _81
REMARK   21  A    between atoms: _83  and  _85
REMARK   22  A    between atoms: _85  and  _86
REMARK   23  A    between atoms: _85  and  _88
REMARK   24  A    between atoms: _88  and  _89
REMARK   25  A    between atoms: _89  and  _90
REMARK   26  A    between atoms: _93  and  _95
REMARK   27  A    between atoms: _95  and  _96
REMARK   28  A    between atoms: _95  and  _98
REMARK   29  A    between atoms: _98  and  _99
REMARK   30  A    between atoms: _99  and  _100
REMARK   31  A    between atoms: _102  and  _104
REMARK   32  A    between atoms: _104  and  _105
REMARK   33  A    between atoms: _104  and  _107
REMARK   34  A    between atoms: _107  and  _108
REMARK   35  A    between atoms: _111  and  _113
REMARK   36  A    between atoms: _113  and  _114
REMARK   37  A    between atoms: _113  and  _116
REMARK   38  A    between atoms: _116  and  _117
REMARK   39  A    between atoms: _117  and  _119
REMARK   40  A    between atoms: _119  and  ZN_456
REMARK   41  A    between atoms: _121  and  _122
REMARK   42  A    between atoms: _127  and  _129
REMARK   43  A    between atoms: _129  and  _130
REMARK   44  A    between atoms: _129  and  _132
REMARK   45  A    between atoms: _132  and  _133
REMARK   46  A    between atoms: _139  and  _141
REMARK   47  A    between atoms: _141  and  _142
REMARK   48  A    between atoms: _141  and  _144
REMARK   49  A    between atoms: _144  and  _145
REMARK   50  A    between atoms: _145  and  _146
REMARK   51  A    between atoms: _151  and  _153
REMARK   52  A    between atoms: _153  and  _154
REMARK   53  A    between atoms: _153  and  _156
REMARK   54  A    between atoms: _156  and  _157
REMARK   55  A    between atoms: _157  and  _158
REMARK   56  A    between atoms: _158  and  _159
REMARK   57  A    between atoms: _168  and  _170
REMARK   58  A    between atoms: _170  and  _171
REMARK   59  A    between atoms: _170  and  _173
REMARK   60  A    between atoms: _173  and  _174
REMARK   61  A    between atoms: _179  and  _180
REMARK   62  A    between atoms: _182  and  _184
REMARK   63  A    between atoms: _184  and  _185
REMARK   64  A    between atoms: _184  and  _187
REMARK   65  A    between atoms: _187  and  _188
REMARK   66  A    between atoms: _190  and  _192
REMARK   67  A    between atoms: _192  and  _193
REMARK   68  A    between atoms: _192  and  _195
REMARK   69  A    between atoms: _195  and  _196
REMARK   70  A    between atoms: _201  and  _202
REMARK   71  A    between atoms: _204  and  _206
REMARK   72  A    between atoms: _206  and  _207
REMARK   73  A    between atoms: _206  and  _209
REMARK   74  A    between atoms: _209  and  _210
REMARK   75  A    between atoms: _213  and  _215
REMARK   76  A    between atoms: _215  and  _216
REMARK   77  A    between atoms: _215  and  _218
REMARK   78  A    between atoms: _218  and  _219
REMARK   79  A    between atoms: _222  and  _224
REMARK   80  A    between atoms: _224  and  _225
REMARK   81  A    between atoms: _224  and  _227
REMARK   82  A    between atoms: _227  and  _228
REMARK   83  A    between atoms: _233  and  _235
REMARK   84  A    between atoms: _235  and  _236
REMARK   85  A    between atoms: _235  and  _238
REMARK   86  A    between atoms: _238  and  _239
REMARK   87  A    between atoms: _239  and  _240
REMARK   88  A    between atoms: _240  and  _241
REMARK   89  A    between atoms: _250  and  _252
REMARK   90  A    between atoms: _252  and  _253
REMARK   91  A    between atoms: _255  and  _257
REMARK   92  A    between atoms: _257  and  _258
REMARK   93  A    between atoms: _257  and  _260
REMARK   94  A    between atoms: _260  and  _261
REMARK   95  A    between atoms: _264  and  _266
REMARK   96  A    between atoms: _266  and  _267
REMARK   97  A    between atoms: _266  and  _269
REMARK   98  A    between atoms: _269  and  _270
REMARK   99  A    between atoms: _273  and  _275
REMARK  100  A    between atoms: _275  and  _276
REMARK  101  A    between atoms: _275  and  _278
REMARK  102  A    between atoms: _278  and  _279
REMARK  103  A    between atoms: _285  and  _287
REMARK  104  A    between atoms: _287  and  _288
REMARK  105  A    between atoms: _287  and  _290
REMARK  106  A    between atoms: _290  and  _291
REMARK  107  A    between atoms: _291  and  _292
REMARK  108  A    between atoms: _292  and  _293
REMARK  109  A    between atoms: _302  and  _304
REMARK  110  A    between atoms: _304  and  _305
REMARK  111  A    between atoms: _304  and  _307
REMARK  112  A    between atoms: _307  and  _308
REMARK  113  A    between atoms: _311  and  _313
REMARK  114  A    between atoms: _313  and  _314
REMARK  115  A    between atoms: _313  and  _316
REMARK  116  A    between atoms: _316  and  _317
REMARK  117  A    between atoms: _327  and  _329
REMARK  118  A    between atoms: _329  and  _330
REMARK  119  A    between atoms: _329  and  _332
REMARK  120  A    between atoms: _332  and  _333
REMARK  121  A    between atoms: _338  and  _340
REMARK  122  A    between atoms: _340  and  _341
REMARK  123  A    between atoms: _340  and  _343
REMARK  124  A    between atoms: _343  and  _344
REMARK  125  A    between atoms: _348  and  ZN_456
REMARK  126  A    between atoms: _349  and  _351
REMARK  127  A    between atoms: _351  and  _352
REMARK  128  A    between atoms: _351  and  _354
REMARK  129  A    between atoms: _354  and  _355
REMARK  130  A    between atoms: _358  and  _360
REMARK  131  A    between atoms: _360  and  _361
REMARK  132  A    between atoms: _363  and  _365
REMARK  133  A    between atoms: _365  and  _366
REMARK  134  A    between atoms: _365  and  _368
REMARK  135  A    between atoms: _368  and  _369
REMARK  136  A    between atoms: _372  and  _374
REMARK  137  A    between atoms: _374  and  _375
REMARK  138  A    between atoms: _374  and  _377
REMARK  139  A    between atoms: _377  and  _378
REMARK  140  A    between atoms: _381  and  _383
REMARK  141  A    between atoms: _383  and  _384
REMARK  142  A    between atoms: _387  and  _389
REMARK  143  A    between atoms: _389  and  _390
REMARK  144  A    between atoms: _389  and  _392
REMARK  145  A    between atoms: _392  and  _393
REMARK  146  A    between atoms: _398  and  _399
REMARK  147  A    between atoms: _401  and  _403
REMARK  148  A    between atoms: _403  and  _404
REMARK  149  A    between atoms: _403  and  _406
REMARK  150  A    between atoms: _406  and  _407
REMARK  151  A    between atoms: _410  and  _412
REMARK  152  A    between atoms: _412  and  _413
REMARK  153  A    between atoms: _412  and  _415
REMARK  154  A    between atoms: _415  and  _416
REMARK  155  A    between atoms: _416  and  _417
REMARK  156  A    between atoms: _420  and  _422
REMARK  157  A    between atoms: _422  and  _423
REMARK  158  A    between atoms: _422  and  _425
REMARK  159  A    between atoms: _425  and  _426
REMARK  160  A    between atoms: _426  and  _427
REMARK  161  A    between atoms: _427  and  _428
REMARK  162  A    between atoms: _437  and  _439
REMARK  163  A    between atoms: _439  and  _440
REMARK  164  A    between atoms: _442  and  _444
REMARK  165  A    between atoms: _444  and  _445
REMARK  166  A    between atoms: _444  and  _447
REMARK  167  A    between atoms: _447  and  _448
REMARK  168  A    between atoms: _451  and  _453
REMARK  169  A    between atoms: _453  and  _454
REMARK                            x       y       z     vdW  Elec       q    Type
REMARK                         _______ _______ _______ _____ _____    ______ ____
ROOT
ATOM      1  O   HOH     1      27.028  59.470   8.268  0.00  0.00    +0.000 OA
ENDROOT
TORSDOF 0
REMARK  Name = ../refined-set-2016/2f7p/2f7p_pocket.pdb
REMARK  169 active torsions:
REMARK  status: ('A' for Active; 'I' for Inactive)
REMARK    1  A    between atoms: _1  and  _3
REMARK    2  A    between atoms: _14  and  _17
REMARK    3  A    between atoms: _17  and  _18
REMARK    4  A    between atoms: _25  and  _26
REMARK    5  A    between atoms: _33  and  _34
REMARK    6  A    between atoms: _39  and  _41
REMARK    7  A    between atoms: _41  and  _42
REMARK    8  A    between atoms: _44  and  _46
REMARK    9  A    between atoms: _46  and  _47
REMARK   10  A    between atoms: _46  and  _49
REMARK   11  A    between atoms: _49  and  _50
REMARK   12  A    between atoms: _60  and  _62
REMARK   13  A    between atoms: _62  and  _63
REMARK   14  A    between atoms: _62  and  _65
REMARK   15  A    between atoms: _65  and  _66
REMARK   16  A    between atoms: _69  and  _71
REMARK   17  A    between atoms: _71  and  _72
REMARK   18  A    between atoms: _71  and  _74
REMARK   19  A    between atoms: _74  and  _75
REMARK   20  A    between atoms: _80  and  _81
REMARK   21  A    between atoms: _83  and  _85
REMARK   22  A    between atoms: _85  and  _86
REMARK   23  A    between atoms: _85  and  _88
REMARK   24  A    between atoms: _88  and  _89
REMARK   25  A    between atoms: _89  and  _90
REMARK   26  A    between atoms: _93  and  _95
REMARK   27  A    between atoms: _95  and  _96
REMARK   28  A    between atoms: _95  and  _98
REMARK   29  A    between atoms: _98  and  _99
REMARK   30  A    between atoms: _99  and  _100
REMARK   31  A    between atoms: _102  and  _104
REMARK   32  A    between atoms: _104  and  _105
REMARK   33  A    between atoms: _104  and  _107
REMARK   34  A    between atoms: _107  and  _108
REMARK   35  A    between atoms: _111  and  _113
REMARK   36  A    between atoms: _113  and  _114
REMARK   37  A    between atoms: _113  and  _116
REMARK   38  A    between atoms: _116  and  _117
REMARK   39  A    between atoms: _117  and  _119
REMARK   40  A    between atoms: _119  and  ZN_456
REMARK   41  A    between atoms: _121  and  _122
REMARK   42  A    between atoms: _127  and  _129
REMARK   43  A    between atoms: _129  and  _130
REMARK   44  A    between atoms: _129  and  _132
REMARK   45  A    between atoms: _132  and  _133
REMARK   46  A    between atoms: _139  and  _141
REMARK   47  A    between atoms: _141  and  _142
REMARK   48  A    between atoms: _141  and  _144
REMARK   49  A    between atoms: _144  and  _145
REMARK   50  A    between atoms: _145  and  _146
REMARK   51  A    between atoms: _151  and  _153
REMARK   52  A    between atoms: _153  and  _154
REMARK   53  A    between atoms: _153  and  _156
REMARK   54  A    between atoms: _156  and  _157
REMARK   55  A    between atoms: _157  and  _158
REMARK   56  A    between atoms: _158  and  _159
REMARK   57  A    between atoms: _168  and  _170
REMARK   58  A    between atoms: _170  and  _171
REMARK   59  A    between atoms: _170  and  _173
REMARK   60  A    between atoms: _173  and  _174
REMARK   61  A    between atoms: _179  and  _180
REMARK   62  A    between atoms: _182  and  _184
REMARK   63  A    between atoms: _184  and  _185
REMARK   64  A    between atoms: _184  and  _187
REMARK   65  A    between atoms: _187  and  _188
REMARK   66  A    between atoms: _190  and  _192
REMARK   67  A    between atoms: _192  and  _193
REMARK   68  A    between atoms: _192  and  _195
REMARK   69  A    between atoms: _195  and  _196
REMARK   70  A    between atoms: _201  and  _202
REMARK   71  A    between atoms: _204  and  _206
REMARK   72  A    between atoms: _206  and  _207
REMARK   73  A    between atoms: _206  and  _209
REMARK   74  A    between atoms: _209  and  _210
REMARK   75  A    between atoms: _213  and  _215
REMARK   76  A    between atoms: _215  and  _216
REMARK   77  A    between atoms: _215  and  _218
REMARK   78  A    between atoms: _218  and  _219
REMARK   79  A    between atoms: _222  and  _224
REMARK   80  A    between atoms: _224  and  _225
REMARK   81  A    between atoms: _224  and  _227
REMARK   82  A    between atoms: _227  and  _228
REMARK   83  A    between atoms: _233  and  _235
REMARK   84  A    between atoms: _235  and  _236
REMARK   85  A    between atoms: _235  and  _238
REMARK   86  A    between atoms: _238  and  _239
REMARK   87  A    between atoms: _239  and  _240
REMARK   88  A    between atoms: _240  and  _241
REMARK   89  A    between atoms: _250  and  _252
REMARK   90  A    between atoms: _252  and  _253
REMARK   91  A    between atoms: _255  and  _257
REMARK   92  A    between atoms: _257  and  _258
REMARK   93  A    between atoms: _257  and  _260
REMARK   94  A    between atoms: _260  and  _261
REMARK   95  A    between atoms: _264  and  _266
REMARK   96  A    between atoms: _266  and  _267
REMARK   97  A    between atoms: _266  and  _269
REMARK   98  A    between atoms: _269  and  _270
REMARK   99  A    between atoms: _273  and  _275
REMARK  100  A    between atoms: _275  and  _276
REMARK  101  A    between atoms: _275  and  _278
REMARK  102  A    between atoms: _278  and  _279
REMARK  103  A    between atoms: _285  and  _287
REMARK  104  A    between atoms: _287  and  _288
REMARK  105  A    between atoms: _287  and  _290
REMARK  106  A    between atoms: _290  and  _291
REMARK  107  A    between atoms: _291  and  _292
REMARK  108  A    between atoms: _292  and  _293
REMARK  109  A    between atoms: _302  and  _304
REMARK  110  A    between atoms: _304  and  _305
REMARK  111  A    between atoms: _304  and  _307
REMARK  112  A    between atoms: _307  and  _308
REMARK  113  A    between atoms: _311  and  _313
REMARK  114  A    between atoms: _313  and  _314
REMARK  115  A    between atoms: _313  and  _316
REMARK  116  A    between atoms: _316  and  _317
REMARK  117  A    between atoms: _327  and  _329
REMARK  118  A    between atoms: _329  and  _330
REMARK  119  A    between atoms: _329  and  _332
REMARK  120  A    between atoms: _332  and  _333
REMARK  121  A    between atoms: _338  and  _340
REMARK  122  A    between atoms: _340  and  _341
REMARK  123  A    between atoms: _340  and  _343
REMARK  124  A    between atoms: _343  and  _344
REMARK  125  A    between atoms: _348  and  ZN_456
REMARK  126  A    between atoms: _349  and  _351
REMARK  127  A    between atoms: _351  and  _352
REMARK  128  A    between atoms: _351  and  _354
REMARK  129  A    between atoms: _354  and  _355
REMARK  130  A    between atoms: _358  and  _360
REMARK  131  A    between atoms: _360  and  _361
REMARK  132  A    between atoms: _363  and  _365
REMARK  133  A    between atoms: _365  and  _366
REMARK  134  A    between atoms: _365  and  _368
REMARK  135  A    between atoms: _368  and  _369
REMARK  136  A    between atoms: _372  and  _374
REMARK  137  A    between atoms: _374  and  _375
REMARK  138  A    between atoms: _374  and  _377
REMARK  139  A    between atoms: _377  and  _378
REMARK  140  A    between atoms: _381  and  _383
REMARK  141  A    between atoms: _383  and  _384
REMARK  142  A    between atoms: _387  and  _389
REMARK  143  A    between atoms: _389  and  _390
REMARK  144  A    between atoms: _389  and  _392
REMARK  145  A    between atoms: _392  and  _393
REMARK  146  A    between atoms: _398  and  _399
REMARK  147  A    between atoms: _401  and  _403
REMARK  148  A    between atoms: _403  and  _404
REMARK  149  A    between atoms: _403  and  _406
REMARK  150  A    between atoms: _406  and  _407
REMARK  151  A    between atoms: _410  and  _412
REMARK  152  A    between atoms: _412  and  _413
REMARK  153  A    between atoms: _412  and  _415
REMARK  154  A    between atoms: _415  and  _416
REMARK  155  A    between atoms: _416  and  _417
REMARK  156  A    between atoms: _420  and  _422
REMARK  157  A    between atoms: _422  and  _423
REMARK  158  A    between atoms: _422  and  _425
REMARK  159  A    between atoms: _425  and  _426
REMARK  160  A    between atoms: _426  and  _427
REMARK  161  A    between atoms: _427  and  _428
REMARK  162  A    between atoms: _437  and  _439
REMARK  163  A    between atoms: _439  and  _440
REMARK  164  A    between atoms: _442  and  _444
REMARK  165  A    between atoms: _444  and  _445
REMARK  166  A    between atoms: _444  and  _447
REMARK  167  A    between atoms: _447  and  _448
REMARK  168  A    between atoms: _451  and  _453
REMARK  169  A    between atoms: _453  and  _454
REMARK                            x       y       z     vdW  Elec       q    Type
REMARK                         _______ _______ _______ _____ _____    ______ ____
ROOT
ATOM      1  O   HOH     1      24.603  61.337   8.836  0.00  0.00    +0.000 OA
ENDROOT
TORSDOF 0
REMARK  Name = ../refined-set-2016/2f7p/2f7p_pocket.pdb
REMARK  169 active torsions:
REMARK  status: ('A' for Active; 'I' for Inactive)
REMARK    1  A    between atoms: _1  and  _3
REMARK    2  A    between atoms: _14  and  _17
REMARK    3  A    between atoms: _17  and  _18
REMARK    4  A    between atoms: _25  and  _26
REMARK    5  A    between atoms: _33  and  _34
REMARK    6  A    between atoms: _39  and  _41
REMARK    7  A    between atoms: _41  and  _42
REMARK    8  A    between atoms: _44  and  _46
REMARK    9  A    between atoms: _46  and  _47
REMARK   10  A    between atoms: _46  and  _49
REMARK   11  A    between atoms: _49  and  _50
REMARK   12  A    between atoms: _60  and  _62
REMARK   13  A    between atoms: _62  and  _63
REMARK   14  A    between atoms: _62  and  _65
REMARK   15  A    between atoms: _65  and  _66
REMARK   16  A    between atoms: _69  and  _71
REMARK   17  A    between atoms: _71  and  _72
REMARK   18  A    between atoms: _71  and  _74
REMARK   19  A    between atoms: _74  and  _75
REMARK   20  A    between atoms: _80  and  _81
REMARK   21  A    between atoms: _83  and  _85
REMARK   22  A    between atoms: _85  and  _86
REMARK   23  A    between atoms: _85  and  _88
REMARK   24  A    between atoms: _88  and  _89
REMARK   25  A    between atoms: _89  and  _90
REMARK   26  A    between atoms: _93  and  _95
REMARK   27  A    between atoms: _95  and  _96
REMARK   28  A    between atoms: _95  and  _98
REMARK   29  A    between atoms: _98  and  _99
REMARK   30  A    between atoms: _99  and  _100
REMARK   31  A    between atoms: _102  and  _104
REMARK   32  A    between atoms: _104  and  _105
REMARK   33  A    between atoms: _104  and  _107
REMARK   34  A    between atoms: _107  and  _108
REMARK   35  A    between atoms: _111  and  _113
REMARK   36  A    between atoms: _113  and  _114
REMARK   37  A    between atoms: _113  and  _116
REMARK   38  A    between atoms: _116  and  _117
REMARK   39  A    between atoms: _117  and  _119
REMARK   40  A    between atoms: _119  and  ZN_456
REMARK   41  A    between atoms: _121  and  _122
REMARK   42  A    between atoms: _127  and  _129
REMARK   43  A    between atoms: _129  and  _130
REMARK   44  A    between atoms: _129  and  _132
REMARK   45  A    between atoms: _132  and  _133
REMARK   46  A    between atoms: _139  and  _141
REMARK   47  A    between atoms: _141  and  _142
REMARK   48  A    between atoms: _141  and  _144
REMARK   49  A    between atoms: _144  and  _145
REMARK   50  A    between atoms: _145  and  _146
REMARK   51  A    between atoms: _151  and  _153
REMARK   52  A    between atoms: _153  and  _154
REMARK   53  A    between atoms: _153  and  _156
REMARK   54  A    between atoms: _156  and  _157
REMARK   55  A    between atoms: _157  and  _158
REMARK   56  A    between atoms: _158  and  _159
REMARK   57  A    between atoms: _168  and  _170
REMARK   58  A    between atoms: _170  and  _171
REMARK   59  A    between atoms: _170  and  _173
REMARK   60  A    between atoms: _173  and  _174
REMARK   61  A    between atoms: _179  and  _180
REMARK   62  A    between atoms: _182  and  _184
REMARK   63  A    between atoms: _184  and  _185
REMARK   64  A    between atoms: _184  and  _187
REMARK   65  A    between atoms: _187  and  _188
REMARK   66  A    between atoms: _190  and  _192
REMARK   67  A    between atoms: _192  and  _193
REMARK   68  A    between atoms: _192  and  _195
REMARK   69  A    between atoms: _195  and  _196
REMARK   70  A    between atoms: _201  and  _202
REMARK   71  A    between atoms: _204  and  _206
REMARK   72  A    between atoms: _206  and  _207
REMARK   73  A    between atoms: _206  and  _209
REMARK   74  A    between atoms: _209  and  _210
REMARK   75  A    between atoms: _213  and  _215
REMARK   76  A    between atoms: _215  and  _216
REMARK   77  A    between atoms: _215  and  _218
REMARK   78  A    between atoms: _218  and  _219
REMARK   79  A    between atoms: _222  and  _224
REMARK   80  A    between atoms: _224  and  _225
REMARK   81  A    between atoms: _224  and  _227
REMARK   82  A    between atoms: _227  and  _228
REMARK   83  A    between atoms: _233  and  _235
REMARK   84  A    between atoms: _235  and  _236
REMARK   85  A    between atoms: _235  and  _238
REMARK   86  A    between atoms: _238  and  _239
REMARK   87  A    between atoms: _239  and  _240
REMARK   88  A    between atoms: _240  and  _241
REMARK   89  A    between atoms: _250  and  _252
REMARK   90  A    between atoms: _252  and  _253
REMARK   91  A    between atoms: _255  and  _257
REMARK   92  A    between atoms: _257  and  _258
REMARK   93  A    between atoms: _257  and  _260
REMARK   94  A    between atoms: _260  and  _261
REMARK   95  A    between atoms: _264  and  _266
REMARK   96  A    between atoms: _266  and  _267
REMARK   97  A    between atoms: _266  and  _269
REMARK   98  A    between atoms: _269  and  _270
REMARK   99  A    between atoms: _273  and  _275
REMARK  100  A    between atoms: _275  and  _276
REMARK  101  A    between atoms: _275  and  _278
REMARK  102  A    between atoms: _278  and  _279
REMARK  103  A    between atoms: _285  and  _287
REMARK  104  A    between atoms: _287  and  _288
REMARK  105  A    between atoms: _287  and  _290
REMARK  106  A    between atoms: _290  and  _291
REMARK  107  A    between atoms: _291  and  _292
REMARK  108  A    between atoms: _292  and  _293
REMARK  109  A    between atoms: _302  and  _304
REMARK  110  A    between atoms: _304  and  _305
REMARK  111  A    between atoms: _304  and  _307
REMARK  112  A    between atoms: _307  and  _308
REMARK  113  A    between atoms: _311  and  _313
REMARK  114  A    between atoms: _313  and  _314
REMARK  115  A    between atoms: _313  and  _316
REMARK  116  A    between atoms: _316  and  _317
REMARK  117  A    between atoms: _327  and  _329
REMARK  118  A    between atoms: _329  and  _330
REMARK  119  A    between atoms: _329  and  _332
REMARK  120  A    between atoms: _332  and  _333
REMARK  121  A    between atoms: _338  and  _340
REMARK  122  A    between atoms: _340  and  _341
REMARK  123  A    between atoms: _340  and  _343
REMARK  124  A    between atoms: _343  and  _344
REMARK  125  A    between atoms: _348  and  ZN_456
REMARK  126  A    between atoms: _349  and  _351
REMARK  127  A    between atoms: _351  and  _352
REMARK  128  A    between atoms: _351  and  _354
REMARK  129  A    between atoms: _354  and  _355
REMARK  130  A    between atoms: _358  and  _360
REMARK  131  A    between atoms: _360  and  _361
REMARK  132  A    between atoms: _363  and  _365
REMARK  133  A    between atoms: _365  and  _366
REMARK  134  A    between atoms: _365  and  _368
REMARK  135  A    between atoms: _368  and  _369
REMARK  136  A    between atoms: _372  and  _374
REMARK  137  A    between atoms: _374  and  _375
REMARK  138  A    between atoms: _374  and  _377
REMARK  139  A    between atoms: _377  and  _378
REMARK  140  A    between atoms: _381  and  _383
REMARK  141  A    between atoms: _383  and  _384
REMARK  142  A    between atoms: _387  and  _389
REMARK  143  A    between atoms: _389  and  _390
REMARK  144  A    between atoms: _389  and  _392
REMARK  145  A    between atoms: _392  and  _393
REMARK  146  A    between atoms: _398  and  _399
REMARK  147  A    between atoms: _401  and  _403
REMARK  148  A    between atoms: _403  and  _404
REMARK  149  A    between atoms: _403  and  _406
REMARK  150  A    between atoms: _406  and  _407
REMARK  151  A    between atoms: _410  and  _412
REMARK  152  A    between atoms: _412  and  _413
REMARK  153  A    between atoms: _412  and  _415
REMARK  154  A    between atoms: _415  and  _416
REMARK  155  A    between atoms: _416  and  _417
REMARK  156  A    between atoms: _420  and  _422
REMARK  157  A    between atoms: _422  and  _423
REMARK  158  A    between atoms: _422  and  _425
REMARK  159  A    between atoms: _425  and  _426
REMARK  160  A    between atoms: _426  and  _427
REMARK  161  A    between atoms: _427  and  _428
REMARK  162  A    between atoms: _437  and  _439
REMARK  163  A    between atoms: _439  and  _440
REMARK  164  A    between atoms: _442  and  _444
REMARK  165  A    between atoms: _444  and  _445
REMARK  166  A    between atoms: _444  and  _447
REMARK  167  A    between atoms: _447  and  _448
REMARK  168  A    between atoms: _451  and  _453
REMARK  169  A    between atoms: _453  and  _454
REMARK                            x       y       z     vdW  Elec       q    Type
REMARK                         _______ _______ _______ _____ _____    ______ ____
ROOT
ATOM      1  O   HOH     1      24.055  63.390   7.338  0.00  0.00    +0.000 OA
ENDROOT
TORSDOF 0
REMARK  Name = ../refined-set-2016/2f7p/2f7p_pocket.pdb
REMARK  169 active torsions:
REMARK  status: ('A' for Active; 'I' for Inactive)
REMARK    1  A    between atoms: _1  and  _3
REMARK    2  A    between atoms: _14  and  _17
REMARK    3  A    between atoms: _17  and  _18
REMARK    4  A    between atoms: _25  and  _26
REMARK    5  A    between atoms: _33  and  _34
REMARK    6  A    between atoms: _39  and  _41
REMARK    7  A    between atoms: _41  and  _42
REMARK    8  A    between atoms: _44  and  _46
REMARK    9  A    between atoms: _46  and  _47
REMARK   10  A    between atoms: _46  and  _49
REMARK   11  A    between atoms: _49  and  _50
REMARK   12  A    between atoms: _60  and  _62
REMARK   13  A    between atoms: _62  and  _63
REMARK   14  A    between atoms: _62  and  _65
REMARK   15  A    between atoms: _65  and  _66
REMARK   16  A    between atoms: _69  and  _71
REMARK   17  A    between atoms: _71  and  _72
REMARK   18  A    between atoms: _71  and  _74
REMARK   19  A    between atoms: _74  and  _75
REMARK   20  A    between atoms: _80  and  _81
REMARK   21  A    between atoms: _83  and  _85
REMARK   22  A    between atoms: _85  and  _86
REMARK   23  A    between atoms: _85  and  _88
REMARK   24  A    between atoms: _88  and  _89
REMARK   25  A    between atoms: _89  and  _90
REMARK   26  A    between atoms: _93  and  _95
REMARK   27  A    between atoms: _95  and  _96
REMARK   28  A    between atoms: _95  and  _98
REMARK   29  A    between atoms: _98  and  _99
REMARK   30  A    between atoms: _99  and  _100
REMARK   31  A    between atoms: _102  and  _104
REMARK   32  A    between atoms: _104  and  _105
REMARK   33  A    between atoms: _104  and  _107
REMARK   34  A    between atoms: _107  and  _108
REMARK   35  A    between atoms: _111  and  _113
REMARK   36  A    between atoms: _113  and  _114
REMARK   37  A    between atoms: _113  and  _116
REMARK   38  A    between atoms: _116  and  _117
REMARK   39  A    between atoms: _117  and  _119
REMARK   40  A    between atoms: _119  and  ZN_456
REMARK   41  A    between atoms: _121  and  _122
REMARK   42  A    between atoms: _127  and  _129
REMARK   43  A    between atoms: _129  and  _130
REMARK   44  A    between atoms: _129  and  _132
REMARK   45  A    between atoms: _132  and  _133
REMARK   46  A    between atoms: _139  and  _141
REMARK   47  A    between atoms: _141  and  _142
REMARK   48  A    between atoms: _141  and  _144
REMARK   49  A    between atoms: _144  and  _145
REMARK   50  A    between atoms: _145  and  _146
REMARK   51  A    between atoms: _151  and  _153
REMARK   52  A    between atoms: _153  and  _154
REMARK   53  A    between atoms: _153  and  _156
REMARK   54  A    between atoms: _156  and  _157
REMARK   55  A    between atoms: _157  and  _158
REMARK   56  A    between atoms: _158  and  _159
REMARK   57  A    between atoms: _168  and  _170
REMARK   58  A    between atoms: _170  and  _171
REMARK   59  A    between atoms: _170  and  _173
REMARK   60  A    between atoms: _173  and  _174
REMARK   61  A    between atoms: _179  and  _180
REMARK   62  A    between atoms: _182  and  _184
REMARK   63  A    between atoms: _184  and  _185
REMARK   64  A    between atoms: _184  and  _187
REMARK   65  A    between atoms: _187  and  _188
REMARK   66  A    between atoms: _190  and  _192
REMARK   67  A    between atoms: _192  and  _193
REMARK   68  A    between atoms: _192  and  _195
REMARK   69  A    between atoms: _195  and  _196
REMARK   70  A    between atoms: _201  and  _202
REMARK   71  A    between atoms: _204  and  _206
REMARK   72  A    between atoms: _206  and  _207
REMARK   73  A    between atoms: _206  and  _209
REMARK   74  A    between atoms: _209  and  _210
REMARK   75  A    between atoms: _213  and  _215
REMARK   76  A    between atoms: _215  and  _216
REMARK   77  A    between atoms: _215  and  _218
REMARK   78  A    between atoms: _218  and  _219
REMARK   79  A    between atoms: _222  and  _224
REMARK   80  A    between atoms: _224  and  _225
REMARK   81  A    between atoms: _224  and  _227
REMARK   82  A    between atoms: _227  and  _228
REMARK   83  A    between atoms: _233  and  _235
REMARK   84  A    between atoms: _235  and  _236
REMARK   85  A    between atoms: _235  and  _238
REMARK   86  A    between atoms: _238  and  _239
REMARK   87  A    between atoms: _239  and  _240
REMARK   88  A    between atoms: _240  and  _241
REMARK   89  A    between atoms: _250  and  _252
REMARK   90  A    between atoms: _252  and  _253
REMARK   91  A    between atoms: _255  and  _257
REMARK   92  A    between atoms: _257  and  _258
REMARK   93  A    between atoms: _257  and  _260
REMARK   94  A    between atoms: _260  and  _261
REMARK   95  A    between atoms: _264  and  _266
REMARK   96  A    between atoms: _266  and  _267
REMARK   97  A    between atoms: _266  and  _269
REMARK   98  A    between atoms: _269  and  _270
REMARK   99  A    between atoms: _273  and  _275
REMARK  100  A    between atoms: _275  and  _276
REMARK  101  A    between atoms: _275  and  _278
REMARK  102  A    between atoms: _278  and  _279
REMARK  103  A    between atoms: _285  and  _287
REMARK  104  A    between atoms: _287  and  _288
REMARK  105  A    between atoms: _287  and  _290
REMARK  106  A    between atoms: _290  and  _291
REMARK  107  A    between atoms: _291  and  _292
REMARK  108  A    between atoms: _292  and  _293
REMARK  109  A    between atoms: _302  and  _304
REMARK  110  A    between atoms: _304  and  _305
REMARK  111  A    between atoms: _304  and  _307
REMARK  112  A    between atoms: _307  and  _308
REMARK  113  A    between atoms: _311  and  _313
REMARK  114  A    between atoms: _313  and  _314
REMARK  115  A    between atoms: _313  and  _316
REMARK  116  A    between atoms: _316  and  _317
REMARK  117  A    between atoms: _327  and  _329
REMARK  118  A    between atoms: _329  and  _330
REMARK  119  A    between atoms: _329  and  _332
REMARK  120  A    between atoms: _332  and  _333
REMARK  121  A    between atoms: _338  and  _340
REMARK  122  A    between atoms: _340  and  _341
REMARK  123  A    between atoms: _340  and  _343
REMARK  124  A    between atoms: _343  and  _344
REMARK  125  A    between atoms: _348  and  ZN_456
REMARK  126  A    between atoms: _349  and  _351
REMARK  127  A    between atoms: _351  and  _352
REMARK  128  A    between atoms: _351  and  _354
REMARK  129  A    between atoms: _354  and  _355
REMARK  130  A    between atoms: _358  and  _360
REMARK  131  A    between atoms: _360  and  _361
REMARK  132  A    between atoms: _363  and  _365
REMARK  133  A    between atoms: _365  and  _366
REMARK  134  A    between atoms: _365  and  _368
REMARK  135  A    between atoms: _368  and  _369
REMARK  136  A    between atoms: _372  and  _374
REMARK  137  A    between atoms: _374  and  _375
REMARK  138  A    between atoms: _374  and  _377
REMARK  139  A    between atoms: _377  and  _378
REMARK  140  A    between atoms: _381  and  _383
REMARK  141  A    between atoms: _383  and  _384
REMARK  142  A    between atoms: _387  and  _389
REMARK  143  A    between atoms: _389  and  _390
REMARK  144  A    between atoms: _389  and  _392
REMARK  145  A    between atoms: _392  and  _393
REMARK  146  A    between atoms: _398  and  _399
REMARK  147  A    between atoms: _401  and  _403
REMARK  148  A    between atoms: _403  and  _404
REMARK  149  A    between atoms: _403  and  _406
REMARK  150  A    between atoms: _406  and  _407
REMARK  151  A    between atoms: _410  and  _412
REMARK  152  A    between atoms: _412  and  _413
REMARK  153  A    between atoms: _412  and  _415
REMARK  154  A    between atoms: _415  and  _416
REMARK  155  A    between atoms: _416  and  _417
REMARK  156  A    between atoms: _420  and  _422
REMARK  157  A    between atoms: _422  and  _423
REMARK  158  A    between atoms: _422  and  _425
REMARK  159  A    between atoms: _425  and  _426
REMARK  160  A    between atoms: _426  and  _427
REMARK  161  A    between atoms: _427  and  _428
REMARK  162  A    between atoms: _437  and  _439
REMARK  163  A    between atoms: _439  and  _440
REMARK  164  A    between atoms: _442  and  _444
REMARK  165  A    between atoms: _444  and  _445
REMARK  166  A    between atoms: _444  and  _447
REMARK  167  A    between atoms: _447  and  _448
REMARK  168  A    between atoms: _451  and  _453
REMARK  169  A    between atoms: _453  and  _454
REMARK                            x       y       z     vdW  Elec       q    Type
REMARK                         _______ _______ _______ _____ _____    ______ ____
ROOT
ATOM      1  O   HOH     1      26.022  64.675   8.304  0.00  0.00    +0.000 OA
ENDROOT
TORSDOF 0
REMARK  Name = ../refined-set-2016/2f7p/2f7p_pocket.pdb
REMARK  169 active torsions:
REMARK  status: ('A' for Active; 'I' for Inactive)
REMARK    1  A    between atoms: _1  and  _3
REMARK    2  A    between atoms: _14  and  _17
REMARK    3  A    between atoms: _17  and  _18
REMARK    4  A    between atoms: _25  and  _26
REMARK    5  A    between atoms: _33  and  _34
REMARK    6  A    between atoms: _39  and  _41
REMARK    7  A    between atoms: _41  and  _42
REMARK    8  A    between atoms: _44  and  _46
REMARK    9  A    between atoms: _46  and  _47
REMARK   10  A    between atoms: _46  and  _49
REMARK   11  A    between atoms: _49  and  _50
REMARK   12  A    between atoms: _60  and  _62
REMARK   13  A    between atoms: _62  and  _63
REMARK   14  A    between atoms: _62  and  _65
REMARK   15  A    between atoms: _65  and  _66
REMARK   16  A    between atoms: _69  and  _71
REMARK   17  A    between atoms: _71  and  _72
REMARK   18  A    between atoms: _71  and  _74
REMARK   19  A    between atoms: _74  and  _75
REMARK   20  A    between atoms: _80  and  _81
REMARK   21  A    between atoms: _83  and  _85
REMARK   22  A    between atoms: _85  and  _86
REMARK   23  A    between atoms: _85  and  _88
REMARK   24  A    between atoms: _88  and  _89
REMARK   25  A    between atoms: _89  and  _90
REMARK   26  A    between atoms: _93  and  _95
REMARK   27  A    between atoms: _95  and  _96
REMARK   28  A    between atoms: _95  and  _98
REMARK   29  A    between atoms: _98  and  _99
REMARK   30  A    between atoms: _99  and  _100
REMARK   31  A    between atoms: _102  and  _104
REMARK   32  A    between atoms: _104  and  _105
REMARK   33  A    between atoms: _104  and  _107
REMARK   34  A    between atoms: _107  and  _108
REMARK   35  A    between atoms: _111  and  _113
REMARK   36  A    between atoms: _113  and  _114
REMARK   37  A    between atoms: _113  and  _116
REMARK   38  A    between atoms: _116  and  _117
REMARK   39  A    between atoms: _117  and  _119
REMARK   40  A    between atoms: _119  and  ZN_456
REMARK   41  A    between atoms: _121  and  _122
REMARK   42  A    between atoms: _127  and  _129
REMARK   43  A    between atoms: _129  and  _130
REMARK   44  A    between atoms: _129  and  _132
REMARK   45  A    between atoms: _132  and  _133
REMARK   46  A    between atoms: _139  and  _141
REMARK   47  A    between atoms: _141  and  _142
REMARK   48  A    between atoms: _141  and  _144
REMARK   49  A    between atoms: _144  and  _145
REMARK   50  A    between atoms: _145  and  _146
REMARK   51  A    between atoms: _151  and  _153
REMARK   52  A    between atoms: _153  and  _154
REMARK   53  A    between atoms: _153  and  _156
REMARK   54  A    between atoms: _156  and  _157
REMARK   55  A    between atoms: _157  and  _158
REMARK   56  A    between atoms: _158  and  _159
REMARK   57  A    between atoms: _168  and  _170
REMARK   58  A    between atoms: _170  and  _171
REMARK   59  A    between atoms: _170  and  _173
REMARK   60  A    between atoms: _173  and  _174
REMARK   61  A    between atoms: _179  and  _180
REMARK   62  A    between atoms: _182  and  _184
REMARK   63  A    between atoms: _184  and  _185
REMARK   64  A    between atoms: _184  and  _187
REMARK   65  A    between atoms: _187  and  _188
REMARK   66  A    between atoms: _190  and  _192
REMARK   67  A    between atoms: _192  and  _193
REMARK   68  A    between atoms: _192  and  _195
REMARK   69  A    between atoms: _195  and  _196
REMARK   70  A    between atoms: _201  and  _202
REMARK   71  A    between atoms: _204  and  _206
REMARK   72  A    between atoms: _206  and  _207
REMARK   73  A    between atoms: _206  and  _209
REMARK   74  A    between atoms: _209  and  _210
REMARK   75  A    between atoms: _213  and  _215
REMARK   76  A    between atoms: _215  and  _216
REMARK   77  A    between atoms: _215  and  _218
REMARK   78  A    between atoms: _218  and  _219
REMARK   79  A    between atoms: _222  and  _224
REMARK   80  A    between atoms: _224  and  _225
REMARK   81  A    between atoms: _224  and  _227
REMARK   82  A    between atoms: _227  and  _228
REMARK   83  A    between atoms: _233  and  _235
REMARK   84  A    between atoms: _235  and  _236
REMARK   85  A    between atoms: _235  and  _238
REMARK   86  A    between atoms: _238  and  _239
REMARK   87  A    between atoms: _239  and  _240
REMARK   88  A    between atoms: _240  and  _241
REMARK   89  A    between atoms: _250  and  _252
REMARK   90  A    between atoms: _252  and  _253
REMARK   91  A    between atoms: _255  and  _257
REMARK   92  A    between atoms: _257  and  _258
REMARK   93  A    between atoms: _257  and  _260
REMARK   94  A    between atoms: _260  and  _261
REMARK   95  A    between atoms: _264  and  _266
REMARK   96  A    between atoms: _266  and  _267
REMARK   97  A    between atoms: _266  and  _269
REMARK   98  A    between atoms: _269  and  _270
REMARK   99  A    between atoms: _273  and  _275
REMARK  100  A    between atoms: _275  and  _276
REMARK  101  A    between atoms: _275  and  _278
REMARK  102  A    between atoms: _278  and  _279
REMARK  103  A    between atoms: _285  and  _287
REMARK  104  A    between atoms: _287  and  _288
REMARK  105  A    between atoms: _287  and  _290
REMARK  106  A    between atoms: _290  and  _291
REMARK  107  A    between atoms: _291  and  _292
REMARK  108  A    between atoms: _292  and  _293
REMARK  109  A    between atoms: _302  and  _304
REMARK  110  A    between atoms: _304  and  _305
REMARK  111  A    between atoms: _304  and  _307
REMARK  112  A    between atoms: _307  and  _308
REMARK  113  A    between atoms: _311  and  _313
REMARK  114  A    between atoms: _313  and  _314
REMARK  115  A    between atoms: _313  and  _316
REMARK  116  A    between atoms: _316  and  _317
REMARK  117  A    between atoms: _327  and  _329
REMARK  118  A    between atoms: _329  and  _330
REMARK  119  A    between atoms: _329  and  _332
REMARK  120  A    between atoms: _332  and  _333
REMARK  121  A    between atoms: _338  and  _340
REMARK  122  A    between atoms: _340  and  _341
REMARK  123  A    between atoms: _340  and  _343
REMARK  124  A    between atoms: _343  and  _344
REMARK  125  A    between atoms: _348  and  ZN_456
REMARK  126  A    between atoms: _349  and  _351
REMARK  127  A    between atoms: _351  and  _352
REMARK  128  A    between atoms: _351  and  _354
REMARK  129  A    between atoms: _354  and  _355
REMARK  130  A    between atoms: _358  and  _360
REMARK  131  A    between atoms: _360  and  _361
REMARK  132  A    between atoms: _363  and  _365
REMARK  133  A    between atoms: _365  and  _366
REMARK  134  A    between atoms: _365  and  _368
REMARK  135  A    between atoms: _368  and  _369
REMARK  136  A    between atoms: _372  and  _374
REMARK  137  A    between atoms: _374  and  _375
REMARK  138  A    between atoms: _374  and  _377
REMARK  139  A    between atoms: _377  and  _378
REMARK  140  A    between atoms: _381  and  _383
REMARK  141  A    between atoms: _383  and  _384
REMARK  142  A    between atoms: _387  and  _389
REMARK  143  A    between atoms: _389  and  _390
REMARK  144  A    between atoms: _389  and  _392
REMARK  145  A    between atoms: _392  and  _393
REMARK  146  A    between atoms: _398  and  _399
REMARK  147  A    between atoms: _401  and  _403
REMARK  148  A    between atoms: _403  and  _404
REMARK  149  A    between atoms: _403  and  _406
REMARK  150  A    between atoms: _406  and  _407
REMARK  151  A    between atoms: _410  and  _412
REMARK  152  A    between atoms: _412  and  _413
REMARK  153  A    between atoms: _412  and  _415
REMARK  154  A    between atoms: _415  and  _416
REMARK  155  A    between atoms: _416  and  _417
REMARK  156  A    between atoms: _420  and  _422
REMARK  157  A    between atoms: _422  and  _423
REMARK  158  A    between atoms: _422  and  _425
REMARK  159  A    between atoms: _425  and  _426
REMARK  160  A    between atoms: _426  and  _427
REMARK  161  A    between atoms: _427  and  _428
REMARK  162  A    between atoms: _437  and  _439
REMARK  163  A    between atoms: _439  and  _440
REMARK  164  A    between atoms: _442  and  _444
REMARK  165  A    between atoms: _444  and  _445
REMARK  166  A    between atoms: _444  and  _447
REMARK  167  A    between atoms: _447  and  _448
REMARK  168  A    between atoms: _451  and  _453
REMARK  169  A    between atoms: _453  and  _454
REMARK                            x       y       z     vdW  Elec       q    Type
REMARK                         _______ _______ _______ _____ _____    ______ ____
ROOT
ATOM      1  O   HOH     1      25.574  67.065   8.982  0.00  0.00    +0.000 OA
ENDROOT
TORSDOF 0
REMARK  Name = ../refined-set-2016/2f7p/2f7p_pocket.pdb
REMARK  169 active torsions:
REMARK  status: ('A' for Active; 'I' for Inactive)
REMARK    1  A    between atoms: _1  and  _3
REMARK    2  A    between atoms: _14  and  _17
REMARK    3  A    between atoms: _17  and  _18
REMARK    4  A    between atoms: _25  and  _26
REMARK    5  A    between atoms: _33  and  _34
REMARK    6  A    between atoms: _39  and  _41
REMARK    7  A    between atoms: _41  and  _42
REMARK    8  A    between atoms: _44  and  _46
REMARK    9  A    between atoms: _46  and  _47
REMARK   10  A    between atoms: _46  and  _49
REMARK   11  A    between atoms: _49  and  _50
REMARK   12  A    between atoms: _60  and  _62
REMARK   13  A    between atoms: _62  and  _63
REMARK   14  A    between atoms: _62  and  _65
REMARK   15  A    between atoms: _65  and  _66
REMARK   16  A    between atoms: _69  and  _71
REMARK   17  A    between atoms: _71  and  _72
REMARK   18  A    between atoms: _71  and  _74
REMARK   19  A    between atoms: _74  and  _75
REMARK   20  A    between atoms: _80  and  _81
REMARK   21  A    between atoms: _83  and  _85
REMARK   22  A    between atoms: _85  and  _86
REMARK   23  A    between atoms: _85  and  _88
REMARK   24  A    between atoms: _88  and  _89
REMARK   25  A    between atoms: _89  and  _90
REMARK   26  A    between atoms: _93  and  _95
REMARK   27  A    between atoms: _95  and  _96
REMARK   28  A    between atoms: _95  and  _98
REMARK   29  A    between atoms: _98  and  _99
REMARK   30  A    between atoms: _99  and  _100
REMARK   31  A    between atoms: _102  and  _104
REMARK   32  A    between atoms: _104  and  _105
REMARK   33  A    between atoms: _104  and  _107
REMARK   34  A    between atoms: _107  and  _108
REMARK   35  A    between atoms: _111  and  _113
REMARK   36  A    between atoms: _113  and  _114
REMARK   37  A    between atoms: _113  and  _116
REMARK   38  A    between atoms: _116  and  _117
REMARK   39  A    between atoms: _117  and  _119
REMARK   40  A    between atoms: _119  and  ZN_456
REMARK   41  A    between atoms: _121  and  _122
REMARK   42  A    between atoms: _127  and  _129
REMARK   43  A    between atoms: _129  and  _130
REMARK   44  A    between atoms: _129  and  _132
REMARK   45  A    between atoms: _132  and  _133
REMARK   46  A    between atoms: _139  and  _141
REMARK   47  A    between atoms: _141  and  _142
REMARK   48  A    between atoms: _141  and  _144
REMARK   49  A    between atoms: _144  and  _145
REMARK   50  A    between atoms: _145  and  _146
REMARK   51  A    between atoms: _151  and  _153
REMARK   52  A    between atoms: _153  and  _154
REMARK   53  A    between atoms: _153  and  _156
REMARK   54  A    between atoms: _156  and  _157
REMARK   55  A    between atoms: _157  and  _158
REMARK   56  A    between atoms: _158  and  _159
REMARK   57  A    between atoms: _168  and  _170
REMARK   58  A    between atoms: _170  and  _171
REMARK   59  A    between atoms: _170  and  _173
REMARK   60  A    between atoms: _173  and  _174
REMARK   61  A    between atoms: _179  and  _180
REMARK   62  A    between atoms: _182  and  _184
REMARK   63  A    between atoms: _184  and  _185
REMARK   64  A    between atoms: _184  and  _187
REMARK   65  A    between atoms: _187  and  _188
REMARK   66  A    between atoms: _190  and  _192
REMARK   67  A    between atoms: _192  and  _193
REMARK   68  A    between atoms: _192  and  _195
REMARK   69  A    between atoms: _195  and  _196
REMARK   70  A    between atoms: _201  and  _202
REMARK   71  A    between atoms: _204  and  _206
REMARK   72  A    between atoms: _206  and  _207
REMARK   73  A    between atoms: _206  and  _209
REMARK   74  A    between atoms: _209  and  _210
REMARK   75  A    between atoms: _213  and  _215
REMARK   76  A    between atoms: _215  and  _216
REMARK   77  A    between atoms: _215  and  _218
REMARK   78  A    between atoms: _218  and  _219
REMARK   79  A    between atoms: _222  and  _224
REMARK   80  A    between atoms: _224  and  _225
REMARK   81  A    between atoms: _224  and  _227
REMARK   82  A    between atoms: _227  and  _228
REMARK   83  A    between atoms: _233  and  _235
REMARK   84  A    between atoms: _235  and  _236
REMARK   85  A    between atoms: _235  and  _238
REMARK   86  A    between atoms: _238  and  _239
REMARK   87  A    between atoms: _239  and  _240
REMARK   88  A    between atoms: _240  and  _241
REMARK   89  A    between atoms: _250  and  _252
REMARK   90  A    between atoms: _252  and  _253
REMARK   91  A    between atoms: _255  and  _257
REMARK   92  A    between atoms: _257  and  _258
REMARK   93  A    between atoms: _257  and  _260
REMARK   94  A    between atoms: _260  and  _261
REMARK   95  A    between atoms: _264  and  _266
REMARK   96  A    between atoms: _266  and  _267
REMARK   97  A    between atoms: _266  and  _269
REMARK   98  A    between atoms: _269  and  _270
REMARK   99  A    between atoms: _273  and  _275
REMARK  100  A    between atoms: _275  and  _276
REMARK  101  A    between atoms: _275  and  _278
REMARK  102  A    between atoms: _278  and  _279
REMARK  103  A    between atoms: _285  and  _287
REMARK  104  A    between atoms: _287  and  _288
REMARK  105  A    between atoms: _287  and  _290
REMARK  106  A    between atoms: _290  and  _291
REMARK  107  A    between atoms: _291  and  _292
REMARK  108  A    between atoms: _292  and  _293
REMARK  109  A    between atoms: _302  and  _304
REMARK  110  A    between atoms: _304  and  _305
REMARK  111  A    between atoms: _304  and  _307
REMARK  112  A    between atoms: _307  and  _308
REMARK  113  A    between atoms: _311  and  _313
REMARK  114  A    between atoms: _313  and  _314
REMARK  115  A    between atoms: _313  and  _316
REMARK  116  A    between atoms: _316  and  _317
REMARK  117  A    between atoms: _327  and  _329
REMARK  118  A    between atoms: _329  and  _330
REMARK  119  A    between atoms: _329  and  _332
REMARK  120  A    between atoms: _332  and  _333
REMARK  121  A    between atoms: _338  and  _340
REMARK  122  A    between atoms: _340  and  _341
REMARK  123  A    between atoms: _340  and  _343
REMARK  124  A    between atoms: _343  and  _344
REMARK  125  A    between atoms: _348  and  ZN_456
REMARK  126  A    between atoms: _349  and  _351
REMARK  127  A    between atoms: _351  and  _352
REMARK  128  A    between atoms: _351  and  _354
REMARK  129  A    between atoms: _354  and  _355
REMARK  130  A    between atoms: _358  and  _360
REMARK  131  A    between atoms: _360  and  _361
REMARK  132  A    between atoms: _363  and  _365
REMARK  133  A    between atoms: _365  and  _366
REMARK  134  A    between atoms: _365  and  _368
REMARK  135  A    between atoms: _368  and  _369
REMARK  136  A    between atoms: _372  and  _374
REMARK  137  A    between atoms: _374  and  _375
REMARK  138  A    between atoms: _374  and  _377
REMARK  139  A    between atoms: _377  and  _378
REMARK  140  A    between atoms: _381  and  _383
REMARK  141  A    between atoms: _383  and  _384
REMARK  142  A    between atoms: _387  and  _389
REMARK  143  A    between atoms: _389  and  _390
REMARK  144  A    between atoms: _389  and  _392
REMARK  145  A    between atoms: _392  and  _393
REMARK  146  A    between atoms: _398  and  _399
REMARK  147  A    between atoms: _401  and  _403
REMARK  148  A    between atoms: _403  and  _404
REMARK  149  A    between atoms: _403  and  _406
REMARK  150  A    between atoms: _406  and  _407
REMARK  151  A    between atoms: _410  and  _412
REMARK  152  A    between atoms: _412  and  _413
REMARK  153  A    between atoms: _412  and  _415
REMARK  154  A    between atoms: _415  and  _416
REMARK  155  A    between atoms: _416  and  _417
REMARK  156  A    between atoms: _420  and  _422
REMARK  157  A    between atoms: _422  and  _423
REMARK  158  A    between atoms: _422  and  _425
REMARK  159  A    between atoms: _425  and  _426
REMARK  160  A    between atoms: _426  and  _427
REMARK  161  A    between atoms: _427  and  _428
REMARK  162  A    between atoms: _437  and  _439
REMARK  163  A    between atoms: _439  and  _440
REMARK  164  A    between atoms: _442  and  _444
REMARK  165  A    between atoms: _444  and  _445
REMARK  166  A    between atoms: _444  and  _447
REMARK  167  A    between atoms: _447  and  _448
REMARK  168  A    between atoms: _451  and  _453
REMARK  169  A    between atoms: _453  and  _454
REMARK                            x       y       z     vdW  Elec       q    Type
REMARK                         _______ _______ _______ _____ _____    ______ ____
ROOT
ATOM      1  O   HOH     1      28.731  69.373  12.358  0.00  0.00    +0.000 OA
ENDROOT
TORSDOF 0
REMARK  Name = ../refined-set-2016/2f7p/2f7p_pocket.pdb
REMARK  169 active torsions:
REMARK  status: ('A' for Active; 'I' for Inactive)
REMARK    1  A    between atoms: _1  and  _3
REMARK    2  A    between atoms: _14  and  _17
REMARK    3  A    between atoms: _17  and  _18
REMARK    4  A    between atoms: _25  and  _26
REMARK    5  A    between atoms: _33  and  _34
REMARK    6  A    between atoms: _39  and  _41
REMARK    7  A    between atoms: _41  and  _42
REMARK    8  A    between atoms: _44  and  _46
REMARK    9  A    between atoms: _46  and  _47
REMARK   10  A    between atoms: _46  and  _49
REMARK   11  A    between atoms: _49  and  _50
REMARK   12  A    between atoms: _60  and  _62
REMARK   13  A    between atoms: _62  and  _63
REMARK   14  A    between atoms: _62  and  _65
REMARK   15  A    between atoms: _65  and  _66
REMARK   16  A    between atoms: _69  and  _71
REMARK   17  A    between atoms: _71  and  _72
REMARK   18  A    between atoms: _71  and  _74
REMARK   19  A    between atoms: _74  and  _75
REMARK   20  A    between atoms: _80  and  _81
REMARK   21  A    between atoms: _83  and  _85
REMARK   22  A    between atoms: _85  and  _86
REMARK   23  A    between atoms: _85  and  _88
REMARK   24  A    between atoms: _88  and  _89
REMARK   25  A    between atoms: _89  and  _90
REMARK   26  A    between atoms: _93  and  _95
REMARK   27  A    between atoms: _95  and  _96
REMARK   28  A    between atoms: _95  and  _98
REMARK   29  A    between atoms: _98  and  _99
REMARK   30  A    between atoms: _99  and  _100
REMARK   31  A    between atoms: _102  and  _104
REMARK   32  A    between atoms: _104  and  _105
REMARK   33  A    between atoms: _104  and  _107
REMARK   34  A    between atoms: _107  and  _108
REMARK   35  A    between atoms: _111  and  _113
REMARK   36  A    between atoms: _113  and  _114
REMARK   37  A    between atoms: _113  and  _116
REMARK   38  A    between atoms: _116  and  _117
REMARK   39  A    between atoms: _117  and  _119
REMARK   40  A    between atoms: _119  and  ZN_456
REMARK   41  A    between atoms: _121  and  _122
REMARK   42  A    between atoms: _127  and  _129
REMARK   43  A    between atoms: _129  and  _130
REMARK   44  A    between atoms: _129  and  _132
REMARK   45  A    between atoms: _132  and  _133
REMARK   46  A    between atoms: _139  and  _141
REMARK   47  A    between atoms: _141  and  _142
REMARK   48  A    between atoms: _141  and  _144
REMARK   49  A    between atoms: _144  and  _145
REMARK   50  A    between atoms: _145  and  _146
REMARK   51  A    between atoms: _151  and  _153
REMARK   52  A    between atoms: _153  and  _154
REMARK   53  A    between atoms: _153  and  _156
REMARK   54  A    between atoms: _156  and  _157
REMARK   55  A    between atoms: _157  and  _158
REMARK   56  A    between atoms: _158  and  _159
REMARK   57  A    between atoms: _168  and  _170
REMARK   58  A    between atoms: _170  and  _171
REMARK   59  A    between atoms: _170  and  _173
REMARK   60  A    between atoms: _173  and  _174
REMARK   61  A    between atoms: _179  and  _180
REMARK   62  A    between atoms: _182  and  _184
REMARK   63  A    between atoms: _184  and  _185
REMARK   64  A    between atoms: _184  and  _187
REMARK   65  A    between atoms: _187  and  _188
REMARK   66  A    between atoms: _190  and  _192
REMARK   67  A    between atoms: _192  and  _193
REMARK   68  A    between atoms: _192  and  _195
REMARK   69  A    between atoms: _195  and  _196
REMARK   70  A    between atoms: _201  and  _202
REMARK   71  A    between atoms: _204  and  _206
REMARK   72  A    between atoms: _206  and  _207
REMARK   73  A    between atoms: _206  and  _209
REMARK   74  A    between atoms: _209  and  _210
REMARK   75  A    between atoms: _213  and  _215
REMARK   76  A    between atoms: _215  and  _216
REMARK   77  A    between atoms: _215  and  _218
REMARK   78  A    between atoms: _218  and  _219
REMARK   79  A    between atoms: _222  and  _224
REMARK   80  A    between atoms: _224  and  _225
REMARK   81  A    between atoms: _224  and  _227
REMARK   82  A    between atoms: _227  and  _228
REMARK   83  A    between atoms: _233  and  _235
REMARK   84  A    between atoms: _235  and  _236
REMARK   85  A    between atoms: _235  and  _238
REMARK   86  A    between atoms: _238  and  _239
REMARK   87  A    between atoms: _239  and  _240
REMARK   88  A    between atoms: _240  and  _241
REMARK   89  A    between atoms: _250  and  _252
REMARK   90  A    between atoms: _252  and  _253
REMARK   91  A    between atoms: _255  and  _257
REMARK   92  A    between atoms: _257  and  _258
REMARK   93  A    between atoms: _257  and  _260
REMARK   94  A    between atoms: _260  and  _261
REMARK   95  A    between atoms: _264  and  _266
REMARK   96  A    between atoms: _266  and  _267
REMARK   97  A    between atoms: _266  and  _269
REMARK   98  A    between atoms: _269  and  _270
REMARK   99  A    between atoms: _273  and  _275
REMARK  100  A    between atoms: _275  and  _276
REMARK  101  A    between atoms: _275  and  _278
REMARK  102  A    between atoms: _278  and  _279
REMARK  103  A    between atoms: _285  and  _287
REMARK  104  A    between atoms: _287  and  _288
REMARK  105  A    between atoms: _287  and  _290
REMARK  106  A    between atoms: _290  and  _291
REMARK  107  A    between atoms: _291  and  _292
REMARK  108  A    between atoms: _292  and  _293
REMARK  109  A    between atoms: _302  and  _304
REMARK  110  A    between atoms: _304  and  _305
REMARK  111  A    between atoms: _304  and  _307
REMARK  112  A    between atoms: _307  and  _308
REMARK  113  A    between atoms: _311  and  _313
REMARK  114  A    between atoms: _313  and  _314
REMARK  115  A    between atoms: _313  and  _316
REMARK  116  A    between atoms: _316  and  _317
REMARK  117  A    between atoms: _327  and  _329
REMARK  118  A    between atoms: _329  and  _330
REMARK  119  A    between atoms: _329  and  _332
REMARK  120  A    between atoms: _332  and  _333
REMARK  121  A    between atoms: _338  and  _340
REMARK  122  A    between atoms: _340  and  _341
REMARK  123  A    between atoms: _340  and  _343
REMARK  124  A    between atoms: _343  and  _344
REMARK  125  A    between atoms: _348  and  ZN_456
REMARK  126  A    between atoms: _349  and  _351
REMARK  127  A    between atoms: _351  and  _352
REMARK  128  A    between atoms: _351  and  _354
REMARK  129  A    between atoms: _354  and  _355
REMARK  130  A    between atoms: _358  and  _360
REMARK  131  A    between atoms: _360  and  _361
REMARK  132  A    between atoms: _363  and  _365
REMARK  133  A    between atoms: _365  and  _366
REMARK  134  A    between atoms: _365  and  _368
REMARK  135  A    between atoms: _368  and  _369
REMARK  136  A    between atoms: _372  and  _374
REMARK  137  A    between atoms: _374  and  _375
REMARK  138  A    between atoms: _374  and  _377
REMARK  139  A    between atoms: _377  and  _378
REMARK  140  A    between atoms: _381  and  _383
REMARK  141  A    between atoms: _383  and  _384
REMARK  142  A    between atoms: _387  and  _389
REMARK  143  A    between atoms: _389  and  _390
REMARK  144  A    between atoms: _389  and  _392
REMARK  145  A    between atoms: _392  and  _393
REMARK  146  A    between atoms: _398  and  _399
REMARK  147  A    between atoms: _401  and  _403
REMARK  148  A    between atoms: _403  and  _404
REMARK  149  A    between atoms: _403  and  _406
REMARK  150  A    between atoms: _406  and  _407
REMARK  151  A    between atoms: _410  and  _412
REMARK  152  A    between atoms: _412  and  _413
REMARK  153  A    between atoms: _412  and  _415
REMARK  154  A    between atoms: _415  and  _416
REMARK  155  A    between atoms: _416  and  _417
REMARK  156  A    between atoms: _420  and  _422
REMARK  157  A    between atoms: _422  and  _423
REMARK  158  A    between atoms: _422  and  _425
REMARK  159  A    between atoms: _425  and  _426
REMARK  160  A    between atoms: _426  and  _427
REMARK  161  A    between atoms: _427  and  _428
REMARK  162  A    between atoms: _437  and  _439
REMARK  163  A    between atoms: _439  and  _440
REMARK  164  A    between atoms: _442  and  _444
REMARK  165  A    between atoms: _444  and  _445
REMARK  166  A    between atoms: _444  and  _447
REMARK  167  A    between atoms: _447  and  _448
REMARK  168  A    between atoms: _451  and  _453
REMARK  169  A    between atoms: _453  and  _454
REMARK                            x       y       z     vdW  Elec       q    Type
REMARK                         _______ _______ _______ _____ _____    ______ ____
ROOT
ATOM      1  O   HOH     1      30.526  67.633  13.454  0.00  0.00    +0.000 OA
ENDROOT
TORSDOF 0
REMARK  Name = ../refined-set-2016/2f7p/2f7p_pocket.pdb
REMARK  169 active torsions:
REMARK  status: ('A' for Active; 'I' for Inactive)
REMARK    1  A    between atoms: _1  and  _3
REMARK    2  A    between atoms: _14  and  _17
REMARK    3  A    between atoms: _17  and  _18
REMARK    4  A    between atoms: _25  and  _26
REMARK    5  A    between atoms: _33  and  _34
REMARK    6  A    between atoms: _39  and  _41
REMARK    7  A    between atoms: _41  and  _42
REMARK    8  A    between atoms: _44  and  _46
REMARK    9  A    between atoms: _46  and  _47
REMARK   10  A    between atoms: _46  and  _49
REMARK   11  A    between atoms: _49  and  _50
REMARK   12  A    between atoms: _60  and  _62
REMARK   13  A    between atoms: _62  and  _63
REMARK   14  A    between atoms: _62  and  _65
REMARK   15  A    between atoms: _65  and  _66
REMARK   16  A    between atoms: _69  and  _71
REMARK   17  A    between atoms: _71  and  _72
REMARK   18  A    between atoms: _71  and  _74
REMARK   19  A    between atoms: _74  and  _75
REMARK   20  A    between atoms: _80  and  _81
REMARK   21  A    between atoms: _83  and  _85
REMARK   22  A    between atoms: _85  and  _86
REMARK   23  A    between atoms: _85  and  _88
REMARK   24  A    between atoms: _88  and  _89
REMARK   25  A    between atoms: _89  and  _90
REMARK   26  A    between atoms: _93  and  _95
REMARK   27  A    between atoms: _95  and  _96
REMARK   28  A    between atoms: _95  and  _98
REMARK   29  A    between atoms: _98  and  _99
REMARK   30  A    between atoms: _99  and  _100
REMARK   31  A    between atoms: _102  and  _104
REMARK   32  A    between atoms: _104  and  _105
REMARK   33  A    between atoms: _104  and  _107
REMARK   34  A    between atoms: _107  and  _108
REMARK   35  A    between atoms: _111  and  _113
REMARK   36  A    between atoms: _113  and  _114
REMARK   37  A    between atoms: _113  and  _116
REMARK   38  A    between atoms: _116  and  _117
REMARK   39  A    between atoms: _117  and  _119
REMARK   40  A    between atoms: _119  and  ZN_456
REMARK   41  A    between atoms: _121  and  _122
REMARK   42  A    between atoms: _127  and  _129
REMARK   43  A    between atoms: _129  and  _130
REMARK   44  A    between atoms: _129  and  _132
REMARK   45  A    between atoms: _132  and  _133
REMARK   46  A    between atoms: _139  and  _141
REMARK   47  A    between atoms: _141  and  _142
REMARK   48  A    between atoms: _141  and  _144
REMARK   49  A    between atoms: _144  and  _145
REMARK   50  A    between atoms: _145  and  _146
REMARK   51  A    between atoms: _151  and  _153
REMARK   52  A    between atoms: _153  and  _154
REMARK   53  A    between atoms: _153  and  _156
REMARK   54  A    between atoms: _156  and  _157
REMARK   55  A    between atoms: _157  and  _158
REMARK   56  A    between atoms: _158  and  _159
REMARK   57  A    between atoms: _168  and  _170
REMARK   58  A    between atoms: _170  and  _171
REMARK   59  A    between atoms: _170  and  _173
REMARK   60  A    between atoms: _173  and  _174
REMARK   61  A    between atoms: _179  and  _180
REMARK   62  A    between atoms: _182  and  _184
REMARK   63  A    between atoms: _184  and  _185
REMARK   64  A    between atoms: _184  and  _187
REMARK   65  A    between atoms: _187  and  _188
REMARK   66  A    between atoms: _190  and  _192
REMARK   67  A    between atoms: _192  and  _193
REMARK   68  A    between atoms: _192  and  _195
REMARK   69  A    between atoms: _195  and  _196
REMARK   70  A    between atoms: _201  and  _202
REMARK   71  A    between atoms: _204  and  _206
REMARK   72  A    between atoms: _206  and  _207
REMARK   73  A    between atoms: _206  and  _209
REMARK   74  A    between atoms: _209  and  _210
REMARK   75  A    between atoms: _213  and  _215
REMARK   76  A    between atoms: _215  and  _216
REMARK   77  A    between atoms: _215  and  _218
REMARK   78  A    between atoms: _218  and  _219
REMARK   79  A    between atoms: _222  and  _224
REMARK   80  A    between atoms: _224  and  _225
REMARK   81  A    between atoms: _224  and  _227
REMARK   82  A    between atoms: _227  and  _228
REMARK   83  A    between atoms: _233  and  _235
REMARK   84  A    between atoms: _235  and  _236
REMARK   85  A    between atoms: _235  and  _238
REMARK   86  A    between atoms: _238  and  _239
REMARK   87  A    between atoms: _239  and  _240
REMARK   88  A    between atoms: _240  and  _241
REMARK   89  A    between atoms: _250  and  _252
REMARK   90  A    between atoms: _252  and  _253
REMARK   91  A    between atoms: _255  and  _257
REMARK   92  A    between atoms: _257  and  _258
REMARK   93  A    between atoms: _257  and  _260
REMARK   94  A    between atoms: _260  and  _261
REMARK   95  A    between atoms: _264  and  _266
REMARK   96  A    between atoms: _266  and  _267
REMARK   97  A    between atoms: _266  and  _269
REMARK   98  A    between atoms: _269  and  _270
REMARK   99  A    between atoms: _273  and  _275
REMARK  100  A    between atoms: _275  and  _276
REMARK  101  A    between atoms: _275  and  _278
REMARK  102  A    between atoms: _278  and  _279
REMARK  103  A    between atoms: _285  and  _287
REMARK  104  A    between atoms: _287  and  _288
REMARK  105  A    between atoms: _287  and  _290
REMARK  106  A    between atoms: _290  and  _291
REMARK  107  A    between atoms: _291  and  _292
REMARK  108  A    between atoms: _292  and  _293
REMARK  109  A    between atoms: _302  and  _304
REMARK  110  A    between atoms: _304  and  _305
REMARK  111  A    between atoms: _304  and  _307
REMARK  112  A    between atoms: _307  and  _308
REMARK  113  A    between atoms: _311  and  _313
REMARK  114  A    between atoms: _313  and  _314
REMARK  115  A    between atoms: _313  and  _316
REMARK  116  A    between atoms: _316  and  _317
REMARK  117  A    between atoms: _327  and  _329
REMARK  118  A    between atoms: _329  and  _330
REMARK  119  A    between atoms: _329  and  _332
REMARK  120  A    between atoms: _332  and  _333
REMARK  121  A    between atoms: _338  and  _340
REMARK  122  A    between atoms: _340  and  _341
REMARK  123  A    between atoms: _340  and  _343
REMARK  124  A    between atoms: _343  and  _344
REMARK  125  A    between atoms: _348  and  ZN_456
REMARK  126  A    between atoms: _349  and  _351
REMARK  127  A    between atoms: _351  and  _352
REMARK  128  A    between atoms: _351  and  _354
REMARK  129  A    between atoms: _354  and  _355
REMARK  130  A    between atoms: _358  and  _360
REMARK  131  A    between atoms: _360  and  _361
REMARK  132  A    between atoms: _363  and  _365
REMARK  133  A    between atoms: _365  and  _366
REMARK  134  A    between atoms: _365  and  _368
REMARK  135  A    between atoms: _368  and  _369
REMARK  136  A    between atoms: _372  and  _374
REMARK  137  A    between atoms: _374  and  _375
REMARK  138  A    between atoms: _374  and  _377
REMARK  139  A    between atoms: _377  and  _378
REMARK  140  A    between atoms: _381  and  _383
REMARK  141  A    between atoms: _383  and  _384
REMARK  142  A    between atoms: _387  and  _389
REMARK  143  A    between atoms: _389  and  _390
REMARK  144  A    between atoms: _389  and  _392
REMARK  145  A    between atoms: _392  and  _393
REMARK  146  A    between atoms: _398  and  _399
REMARK  147  A    between atoms: _401  and  _403
REMARK  148  A    between atoms: _403  and  _404
REMARK  149  A    between atoms: _403  and  _406
REMARK  150  A    between atoms: _406  and  _407
REMARK  151  A    between atoms: _410  and  _412
REMARK  152  A    between atoms: _412  and  _413
REMARK  153  A    between atoms: _412  and  _415
REMARK  154  A    between atoms: _415  and  _416
REMARK  155  A    between atoms: _416  and  _417
REMARK  156  A    between atoms: _420  and  _422
REMARK  157  A    between atoms: _422  and  _423
REMARK  158  A    between atoms: _422  and  _425
REMARK  159  A    between atoms: _425  and  _426
REMARK  160  A    between atoms: _426  and  _427
REMARK  161  A    between atoms: _427  and  _428
REMARK  162  A    between atoms: _437  and  _439
REMARK  163  A    between atoms: _439  and  _440
REMARK  164  A    between atoms: _442  and  _444
REMARK  165  A    between atoms: _444  and  _445
REMARK  166  A    between atoms: _444  and  _447
REMARK  167  A    between atoms: _447  and  _448
REMARK  168  A    between atoms: _451  and  _453
REMARK  169  A    between atoms: _453  and  _454
REMARK                            x       y       z     vdW  Elec       q    Type
REMARK                         _______ _______ _______ _____ _____    ______ ____
ROOT
ATOM      1  O   HOH     1      29.557  66.084  15.839  0.00  0.00    +0.000 OA
ENDROOT
TORSDOF 0
REMARK  Name = ../refined-set-2016/2f7p/2f7p_pocket.pdb
REMARK  169 active torsions:
REMARK  status: ('A' for Active; 'I' for Inactive)
REMARK    1  A    between atoms: _1  and  _3
REMARK    2  A    between atoms: _14  and  _17
REMARK    3  A    between atoms: _17  and  _18
REMARK    4  A    between atoms: _25  and  _26
REMARK    5  A    between atoms: _33  and  _34
REMARK    6  A    between atoms: _39  and  _41
REMARK    7  A    between atoms: _41  and  _42
REMARK    8  A    between atoms: _44  and  _46
REMARK    9  A    between atoms: _46  and  _47
REMARK   10  A    between atoms: _46  and  _49
REMARK   11  A    between atoms: _49  and  _50
REMARK   12  A    between atoms: _60  and  _62
REMARK   13  A    between atoms: _62  and  _63
REMARK   14  A    between atoms: _62  and  _65
REMARK   15  A    between atoms: _65  and  _66
REMARK   16  A    between atoms: _69  and  _71
REMARK   17  A    between atoms: _71  and  _72
REMARK   18  A    between atoms: _71  and  _74
REMARK   19  A    between atoms: _74  and  _75
REMARK   20  A    between atoms: _80  and  _81
REMARK   21  A    between atoms: _83  and  _85
REMARK   22  A    between atoms: _85  and  _86
REMARK   23  A    between atoms: _85  and  _88
REMARK   24  A    between atoms: _88  and  _89
REMARK   25  A    between atoms: _89  and  _90
REMARK   26  A    between atoms: _93  and  _95
REMARK   27  A    between atoms: _95  and  _96
REMARK   28  A    between atoms: _95  and  _98
REMARK   29  A    between atoms: _98  and  _99
REMARK   30  A    between atoms: _99  and  _100
REMARK   31  A    between atoms: _102  and  _104
REMARK   32  A    between atoms: _104  and  _105
REMARK   33  A    between atoms: _104  and  _107
REMARK   34  A    between atoms: _107  and  _108
REMARK   35  A    between atoms: _111  and  _113
REMARK   36  A    between atoms: _113  and  _114
REMARK   37  A    between atoms: _113  and  _116
REMARK   38  A    between atoms: _116  and  _117
REMARK   39  A    between atoms: _117  and  _119
REMARK   40  A    between atoms: _119  and  ZN_456
REMARK   41  A    between atoms: _121  and  _122
REMARK   42  A    between atoms: _127  and  _129
REMARK   43  A    between atoms: _129  and  _130
REMARK   44  A    between atoms: _129  and  _132
REMARK   45  A    between atoms: _132  and  _133
REMARK   46  A    between atoms: _139  and  _141
REMARK   47  A    between atoms: _141  and  _142
REMARK   48  A    between atoms: _141  and  _144
REMARK   49  A    between atoms: _144  and  _145
REMARK   50  A    between atoms: _145  and  _146
REMARK   51  A    between atoms: _151  and  _153
REMARK   52  A    between atoms: _153  and  _154
REMARK   53  A    between atoms: _153  and  _156
REMARK   54  A    between atoms: _156  and  _157
REMARK   55  A    between atoms: _157  and  _158
REMARK   56  A    between atoms: _158  and  _159
REMARK   57  A    between atoms: _168  and  _170
REMARK   58  A    between atoms: _170  and  _171
REMARK   59  A    between atoms: _170  and  _173
REMARK   60  A    between atoms: _173  and  _174
REMARK   61  A    between atoms: _179  and  _180
REMARK   62  A    between atoms: _182  and  _184
REMARK   63  A    between atoms: _184  and  _185
REMARK   64  A    between atoms: _184  and  _187
REMARK   65  A    between atoms: _187  and  _188
REMARK   66  A    between atoms: _190  and  _192
REMARK   67  A    between atoms: _192  and  _193
REMARK   68  A    between atoms: _192  and  _195
REMARK   69  A    between atoms: _195  and  _196
REMARK   70  A    between atoms: _201  and  _202
REMARK   71  A    between atoms: _204  and  _206
REMARK   72  A    between atoms: _206  and  _207
REMARK   73  A    between atoms: _206  and  _209
REMARK   74  A    between atoms: _209  and  _210
REMARK   75  A    between atoms: _213  and  _215
REMARK   76  A    between atoms: _215  and  _216
REMARK   77  A    between atoms: _215  and  _218
REMARK   78  A    between atoms: _218  and  _219
REMARK   79  A    between atoms: _222  and  _224
REMARK   80  A    between atoms: _224  and  _225
REMARK   81  A    between atoms: _224  and  _227
REMARK   82  A    between atoms: _227  and  _228
REMARK   83  A    between atoms: _233  and  _235
REMARK   84  A    between atoms: _235  and  _236
REMARK   85  A    between atoms: _235  and  _238
REMARK   86  A    between atoms: _238  and  _239
REMARK   87  A    between atoms: _239  and  _240
REMARK   88  A    between atoms: _240  and  _241
REMARK   89  A    between atoms: _250  and  _252
REMARK   90  A    between atoms: _252  and  _253
REMARK   91  A    between atoms: _255  and  _257
REMARK   92  A    between atoms: _257  and  _258
REMARK   93  A    between atoms: _257  and  _260
REMARK   94  A    between atoms: _260  and  _261
REMARK   95  A    between atoms: _264  and  _266
REMARK   96  A    between atoms: _266  and  _267
REMARK   97  A    between atoms: _266  and  _269
REMARK   98  A    between atoms: _269  and  _270
REMARK   99  A    between atoms: _273  and  _275
REMARK  100  A    between atoms: _275  and  _276
REMARK  101  A    between atoms: _275  and  _278
REMARK  102  A    between atoms: _278  and  _279
REMARK  103  A    between atoms: _285  and  _287
REMARK  104  A    between atoms: _287  and  _288
REMARK  105  A    between atoms: _287  and  _290
REMARK  106  A    between atoms: _290  and  _291
REMARK  107  A    between atoms: _291  and  _292
REMARK  108  A    between atoms: _292  and  _293
REMARK  109  A    between atoms: _302  and  _304
REMARK  110  A    between atoms: _304  and  _305
REMARK  111  A    between atoms: _304  and  _307
REMARK  112  A    between atoms: _307  and  _308
REMARK  113  A    between atoms: _311  and  _313
REMARK  114  A    between atoms: _313  and  _314
REMARK  115  A    between atoms: _313  and  _316
REMARK  116  A    between atoms: _316  and  _317
REMARK  117  A    between atoms: _327  and  _329
REMARK  118  A    between atoms: _329  and  _330
REMARK  119  A    between atoms: _329  and  _332
REMARK  120  A    between atoms: _332  and  _333
REMARK  121  A    between atoms: _338  and  _340
REMARK  122  A    between atoms: _340  and  _341
REMARK  123  A    between atoms: _340  and  _343
REMARK  124  A    between atoms: _343  and  _344
REMARK  125  A    between atoms: _348  and  ZN_456
REMARK  126  A    between atoms: _349  and  _351
REMARK  127  A    between atoms: _351  and  _352
REMARK  128  A    between atoms: _351  and  _354
REMARK  129  A    between atoms: _354  and  _355
REMARK  130  A    between atoms: _358  and  _360
REMARK  131  A    between atoms: _360  and  _361
REMARK  132  A    between atoms: _363  and  _365
REMARK  133  A    between atoms: _365  and  _366
REMARK  134  A    between atoms: _365  and  _368
REMARK  135  A    between atoms: _368  and  _369
REMARK  136  A    between atoms: _372  and  _374
REMARK  137  A    between atoms: _374  and  _375
REMARK  138  A    between atoms: _374  and  _377
REMARK  139  A    between atoms: _377  and  _378
REMARK  140  A    between atoms: _381  and  _383
REMARK  141  A    between atoms: _383  and  _384
REMARK  142  A    between atoms: _387  and  _389
REMARK  143  A    between atoms: _389  and  _390
REMARK  144  A    between atoms: _389  and  _392
REMARK  145  A    between atoms: _392  and  _393
REMARK  146  A    between atoms: _398  and  _399
REMARK  147  A    between atoms: _401  and  _403
REMARK  148  A    between atoms: _403  and  _404
REMARK  149  A    between atoms: _403  and  _406
REMARK  150  A    between atoms: _406  and  _407
REMARK  151  A    between atoms: _410  and  _412
REMARK  152  A    between atoms: _412  and  _413
REMARK  153  A    between atoms: _412  and  _415
REMARK  154  A    between atoms: _415  and  _416
REMARK  155  A    between atoms: _416  and  _417
REMARK  156  A    between atoms: _420  and  _422
REMARK  157  A    between atoms: _422  and  _423
REMARK  158  A    between atoms: _422  and  _425
REMARK  159  A    between atoms: _425  and  _426
REMARK  160  A    between atoms: _426  and  _427
REMARK  161  A    between atoms: _427  and  _428
REMARK  162  A    between atoms: _437  and  _439
REMARK  163  A    between atoms: _439  and  _440
REMARK  164  A    between atoms: _442  and  _444
REMARK  165  A    between atoms: _444  and  _445
REMARK  166  A    between atoms: _444  and  _447
REMARK  167  A    between atoms: _447  and  _448
REMARK  168  A    between atoms: _451  and  _453
REMARK  169  A    between atoms: _453  and  _454
REMARK                            x       y       z     vdW  Elec       q    Type
REMARK                         _______ _______ _______ _____ _____    ______ ____
ROOT
ATOM      1  O   HOH     1      29.938  67.109  18.057  0.00  0.00    +0.000 OA
ENDROOT
TORSDOF 0
REMARK  Name = ../refined-set-2016/2f7p/2f7p_pocket.pdb
REMARK  169 active torsions:
REMARK  status: ('A' for Active; 'I' for Inactive)
REMARK    1  A    between atoms: _1  and  _3
REMARK    2  A    between atoms: _14  and  _17
REMARK    3  A    between atoms: _17  and  _18
REMARK    4  A    between atoms: _25  and  _26
REMARK    5  A    between atoms: _33  and  _34
REMARK    6  A    between atoms: _39  and  _41
REMARK    7  A    between atoms: _41  and  _42
REMARK    8  A    between atoms: _44  and  _46
REMARK    9  A    between atoms: _46  and  _47
REMARK   10  A    between atoms: _46  and  _49
REMARK   11  A    between atoms: _49  and  _50
REMARK   12  A    between atoms: _60  and  _62
REMARK   13  A    between atoms: _62  and  _63
REMARK   14  A    between atoms: _62  and  _65
REMARK   15  A    between atoms: _65  and  _66
REMARK   16  A    between atoms: _69  and  _71
REMARK   17  A    between atoms: _71  and  _72
REMARK   18  A    between atoms: _71  and  _74
REMARK   19  A    between atoms: _74  and  _75
REMARK   20  A    between atoms: _80  and  _81
REMARK   21  A    between atoms: _83  and  _85
REMARK   22  A    between atoms: _85  and  _86
REMARK   23  A    between atoms: _85  and  _88
REMARK   24  A    between atoms: _88  and  _89
REMARK   25  A    between atoms: _89  and  _90
REMARK   26  A    between atoms: _93  and  _95
REMARK   27  A    between atoms: _95  and  _96
REMARK   28  A    between atoms: _95  and  _98
REMARK   29  A    between atoms: _98  and  _99
REMARK   30  A    between atoms: _99  and  _100
REMARK   31  A    between atoms: _102  and  _104
REMARK   32  A    between atoms: _104  and  _105
REMARK   33  A    between atoms: _104  and  _107
REMARK   34  A    between atoms: _107  and  _108
REMARK   35  A    between atoms: _111  and  _113
REMARK   36  A    between atoms: _113  and  _114
REMARK   37  A    between atoms: _113  and  _116
REMARK   38  A    between atoms: _116  and  _117
REMARK   39  A    between atoms: _117  and  _119
REMARK   40  A    between atoms: _119  and  ZN_456
REMARK   41  A    between atoms: _121  and  _122
REMARK   42  A    between atoms: _127  and  _129
REMARK   43  A    between atoms: _129  and  _130
REMARK   44  A    between atoms: _129  and  _132
REMARK   45  A    between atoms: _132  and  _133
REMARK   46  A    between atoms: _139  and  _141
REMARK   47  A    between atoms: _141  and  _142
REMARK   48  A    between atoms: _141  and  _144
REMARK   49  A    between atoms: _144  and  _145
REMARK   50  A    between atoms: _145  and  _146
REMARK   51  A    between atoms: _151  and  _153
REMARK   52  A    between atoms: _153  and  _154
REMARK   53  A    between atoms: _153  and  _156
REMARK   54  A    between atoms: _156  and  _157
REMARK   55  A    between atoms: _157  and  _158
REMARK   56  A    between atoms: _158  and  _159
REMARK   57  A    between atoms: _168  and  _170
REMARK   58  A    between atoms: _170  and  _171
REMARK   59  A    between atoms: _170  and  _173
REMARK   60  A    between atoms: _173  and  _174
REMARK   61  A    between atoms: _179  and  _180
REMARK   62  A    between atoms: _182  and  _184
REMARK   63  A    between atoms: _184  and  _185
REMARK   64  A    between atoms: _184  and  _187
REMARK   65  A    between atoms: _187  and  _188
REMARK   66  A    between atoms: _190  and  _192
REMARK   67  A    between atoms: _192  and  _193
REMARK   68  A    between atoms: _192  and  _195
REMARK   69  A    between atoms: _195  and  _196
REMARK   70  A    between atoms: _201  and  _202
REMARK   71  A    between atoms: _204  and  _206
REMARK   72  A    between atoms: _206  and  _207
REMARK   73  A    between atoms: _206  and  _209
REMARK   74  A    between atoms: _209  and  _210
REMARK   75  A    between atoms: _213  and  _215
REMARK   76  A    between atoms: _215  and  _216
REMARK   77  A    between atoms: _215  and  _218
REMARK   78  A    between atoms: _218  and  _219
REMARK   79  A    between atoms: _222  and  _224
REMARK   80  A    between atoms: _224  and  _225
REMARK   81  A    between atoms: _224  and  _227
REMARK   82  A    between atoms: _227  and  _228
REMARK   83  A    between atoms: _233  and  _235
REMARK   84  A    between atoms: _235  and  _236
REMARK   85  A    between atoms: _235  and  _238
REMARK   86  A    between atoms: _238  and  _239
REMARK   87  A    between atoms: _239  and  _240
REMARK   88  A    between atoms: _240  and  _241
REMARK   89  A    between atoms: _250  and  _252
REMARK   90  A    between atoms: _252  and  _253
REMARK   91  A    between atoms: _255  and  _257
REMARK   92  A    between atoms: _257  and  _258
REMARK   93  A    between atoms: _257  and  _260
REMARK   94  A    between atoms: _260  and  _261
REMARK   95  A    between atoms: _264  and  _266
REMARK   96  A    between atoms: _266  and  _267
REMARK   97  A    between atoms: _266  and  _269
REMARK   98  A    between atoms: _269  and  _270
REMARK   99  A    between atoms: _273  and  _275
REMARK  100  A    between atoms: _275  and  _276
REMARK  101  A    between atoms: _275  and  _278
REMARK  102  A    between atoms: _278  and  _279
REMARK  103  A    between atoms: _285  and  _287
REMARK  104  A    between atoms: _287  and  _288
REMARK  105  A    between atoms: _287  and  _290
REMARK  106  A    between atoms: _290  and  _291
REMARK  107  A    between atoms: _291  and  _292
REMARK  108  A    between atoms: _292  and  _293
REMARK  109  A    between atoms: _302  and  _304
REMARK  110  A    between atoms: _304  and  _305
REMARK  111  A    between atoms: _304  and  _307
REMARK  112  A    between atoms: _307  and  _308
REMARK  113  A    between atoms: _311  and  _313
REMARK  114  A    between atoms: _313  and  _314
REMARK  115  A    between atoms: _313  and  _316
REMARK  116  A    between atoms: _316  and  _317
REMARK  117  A    between atoms: _327  and  _329
REMARK  118  A    between atoms: _329  and  _330
REMARK  119  A    between atoms: _329  and  _332
REMARK  120  A    between atoms: _332  and  _333
REMARK  121  A    between atoms: _338  and  _340
REMARK  122  A    between atoms: _340  and  _341
REMARK  123  A    between atoms: _340  and  _343
REMARK  124  A    between atoms: _343  and  _344
REMARK  125  A    between atoms: _348  and  ZN_456
REMARK  126  A    between atoms: _349  and  _351
REMARK  127  A    between atoms: _351  and  _352
REMARK  128  A    between atoms: _351  and  _354
REMARK  129  A    between atoms: _354  and  _355
REMARK  130  A    between atoms: _358  and  _360
REMARK  131  A    between atoms: _360  and  _361
REMARK  132  A    between atoms: _363  and  _365
REMARK  133  A    between atoms: _365  and  _366
REMARK  134  A    between atoms: _365  and  _368
REMARK  135  A    between atoms: _368  and  _369
REMARK  136  A    between atoms: _372  and  _374
REMARK  137  A    between atoms: _374  and  _375
REMARK  138  A    between atoms: _374  and  _377
REMARK  139  A    between atoms: _377  and  _378
REMARK  140  A    between atoms: _381  and  _383
REMARK  141  A    between atoms: _383  and  _384
REMARK  142  A    between atoms: _387  and  _389
REMARK  143  A    between atoms: _389  and  _390
REMARK  144  A    between atoms: _389  and  _392
REMARK  145  A    between atoms: _392  and  _393
REMARK  146  A    between atoms: _398  and  _399
REMARK  147  A    between atoms: _401  and  _403
REMARK  148  A    between atoms: _403  and  _404
REMARK  149  A    between atoms: _403  and  _406
REMARK  150  A    between atoms: _406  and  _407
REMARK  151  A    between atoms: _410  and  _412
REMARK  152  A    between atoms: _412  and  _413
REMARK  153  A    between atoms: _412  and  _415
REMARK  154  A    between atoms: _415  and  _416
REMARK  155  A    between atoms: _416  and  _417
REMARK  156  A    between atoms: _420  and  _422
REMARK  157  A    between atoms: _422  and  _423
REMARK  158  A    between atoms: _422  and  _425
REMARK  159  A    between atoms: _425  and  _426
REMARK  160  A    between atoms: _426  and  _427
REMARK  161  A    between atoms: _427  and  _428
REMARK  162  A    between atoms: _437  and  _439
REMARK  163  A    between atoms: _439  and  _440
REMARK  164  A    between atoms: _442  and  _444
REMARK  165  A    between atoms: _444  and  _445
REMARK  166  A    between atoms: _444  and  _447
REMARK  167  A    between atoms: _447  and  _448
REMARK  168  A    between atoms: _451  and  _453
REMARK  169  A    between atoms: _453  and  _454
REMARK                            x       y       z     vdW  Elec       q    Type
REMARK                         _______ _______ _______ _____ _____    ______ ____
ROOT
ATOM      1  O   HOH     1      31.921  65.658  18.836  0.00  0.00    +0.000 OA
ENDROOT
TORSDOF 0
REMARK  Name = ../refined-set-2016/2f7p/2f7p_pocket.pdb
REMARK  169 active torsions:
REMARK  status: ('A' for Active; 'I' for Inactive)
REMARK    1  A    between atoms: _1  and  _3
REMARK    2  A    between atoms: _14  and  _17
REMARK    3  A    between atoms: _17  and  _18
REMARK    4  A    between atoms: _25  and  _26
REMARK    5  A    between atoms: _33  and  _34
REMARK    6  A    between atoms: _39  and  _41
REMARK    7  A    between atoms: _41  and  _42
REMARK    8  A    between atoms: _44  and  _46
REMARK    9  A    between atoms: _46  and  _47
REMARK   10  A    between atoms: _46  and  _49
REMARK   11  A    between atoms: _49  and  _50
REMARK   12  A    between atoms: _60  and  _62
REMARK   13  A    between atoms: _62  and  _63
REMARK   14  A    between atoms: _62  and  _65
REMARK   15  A    between atoms: _65  and  _66
REMARK   16  A    between atoms: _69  and  _71
REMARK   17  A    between atoms: _71  and  _72
REMARK   18  A    between atoms: _71  and  _74
REMARK   19  A    between atoms: _74  and  _75
REMARK   20  A    between atoms: _80  and  _81
REMARK   21  A    between atoms: _83  and  _85
REMARK   22  A    between atoms: _85  and  _86
REMARK   23  A    between atoms: _85  and  _88
REMARK   24  A    between atoms: _88  and  _89
REMARK   25  A    between atoms: _89  and  _90
REMARK   26  A    between atoms: _93  and  _95
REMARK   27  A    between atoms: _95  and  _96
REMARK   28  A    between atoms: _95  and  _98
REMARK   29  A    between atoms: _98  and  _99
REMARK   30  A    between atoms: _99  and  _100
REMARK   31  A    between atoms: _102  and  _104
REMARK   32  A    between atoms: _104  and  _105
REMARK   33  A    between atoms: _104  and  _107
REMARK   34  A    between atoms: _107  and  _108
REMARK   35  A    between atoms: _111  and  _113
REMARK   36  A    between atoms: _113  and  _114
REMARK   37  A    between atoms: _113  and  _116
REMARK   38  A    between atoms: _116  and  _117
REMARK   39  A    between atoms: _117  and  _119
REMARK   40  A    between atoms: _119  and  ZN_456
REMARK   41  A    between atoms: _121  and  _122
REMARK   42  A    between atoms: _127  and  _129
REMARK   43  A    between atoms: _129  and  _130
REMARK   44  A    between atoms: _129  and  _132
REMARK   45  A    between atoms: _132  and  _133
REMARK   46  A    between atoms: _139  and  _141
REMARK   47  A    between atoms: _141  and  _142
REMARK   48  A    between atoms: _141  and  _144
REMARK   49  A    between atoms: _144  and  _145
REMARK   50  A    between atoms: _145  and  _146
REMARK   51  A    between atoms: _151  and  _153
REMARK   52  A    between atoms: _153  and  _154
REMARK   53  A    between atoms: _153  and  _156
REMARK   54  A    between atoms: _156  and  _157
REMARK   55  A    between atoms: _157  and  _158
REMARK   56  A    between atoms: _158  and  _159
REMARK   57  A    between atoms: _168  and  _170
REMARK   58  A    between atoms: _170  and  _171
REMARK   59  A    between atoms: _170  and  _173
REMARK   60  A    between atoms: _173  and  _174
REMARK   61  A    between atoms: _179  and  _180
REMARK   62  A    between atoms: _182  and  _184
REMARK   63  A    between atoms: _184  and  _185
REMARK   64  A    between atoms: _184  and  _187
REMARK   65  A    between atoms: _187  and  _188
REMARK   66  A    between atoms: _190  and  _192
REMARK   67  A    between atoms: _192  and  _193
REMARK   68  A    between atoms: _192  and  _195
REMARK   69  A    between atoms: _195  and  _196
REMARK   70  A    between atoms: _201  and  _202
REMARK   71  A    between atoms: _204  and  _206
REMARK   72  A    between atoms: _206  and  _207
REMARK   73  A    between atoms: _206  and  _209
REMARK   74  A    between atoms: _209  and  _210
REMARK   75  A    between atoms: _213  and  _215
REMARK   76  A    between atoms: _215  and  _216
REMARK   77  A    between atoms: _215  and  _218
REMARK   78  A    between atoms: _218  and  _219
REMARK   79  A    between atoms: _222  and  _224
REMARK   80  A    between atoms: _224  and  _225
REMARK   81  A    between atoms: _224  and  _227
REMARK   82  A    between atoms: _227  and  _228
REMARK   83  A    between atoms: _233  and  _235
REMARK   84  A    between atoms: _235  and  _236
REMARK   85  A    between atoms: _235  and  _238
REMARK   86  A    between atoms: _238  and  _239
REMARK   87  A    between atoms: _239  and  _240
REMARK   88  A    between atoms: _240  and  _241
REMARK   89  A    between atoms: _250  and  _252
REMARK   90  A    between atoms: _252  and  _253
REMARK   91  A    between atoms: _255  and  _257
REMARK   92  A    between atoms: _257  and  _258
REMARK   93  A    between atoms: _257  and  _260
REMARK   94  A    between atoms: _260  and  _261
REMARK   95  A    between atoms: _264  and  _266
REMARK   96  A    between atoms: _266  and  _267
REMARK   97  A    between atoms: _266  and  _269
REMARK   98  A    between atoms: _269  and  _270
REMARK   99  A    between atoms: _273  and  _275
REMARK  100  A    between atoms: _275  and  _276
REMARK  101  A    between atoms: _275  and  _278
REMARK  102  A    between atoms: _278  and  _279
REMARK  103  A    between atoms: _285  and  _287
REMARK  104  A    between atoms: _287  and  _288
REMARK  105  A    between atoms: _287  and  _290
REMARK  106  A    between atoms: _290  and  _291
REMARK  107  A    between atoms: _291  and  _292
REMARK  108  A    between atoms: _292  and  _293
REMARK  109  A    between atoms: _302  and  _304
REMARK  110  A    between atoms: _304  and  _305
REMARK  111  A    between atoms: _304  and  _307
REMARK  112  A    between atoms: _307  and  _308
REMARK  113  A    between atoms: _311  and  _313
REMARK  114  A    between atoms: _313  and  _314
REMARK  115  A    between atoms: _313  and  _316
REMARK  116  A    between atoms: _316  and  _317
REMARK  117  A    between atoms: _327  and  _329
REMARK  118  A    between atoms: _329  and  _330
REMARK  119  A    between atoms: _329  and  _332
REMARK  120  A    between atoms: _332  and  _333
REMARK  121  A    between atoms: _338  and  _340
REMARK  122  A    between atoms: _340  and  _341
REMARK  123  A    between atoms: _340  and  _343
REMARK  124  A    between atoms: _343  and  _344
REMARK  125  A    between atoms: _348  and  ZN_456
REMARK  126  A    between atoms: _349  and  _351
REMARK  127  A    between atoms: _351  and  _352
REMARK  128  A    between atoms: _351  and  _354
REMARK  129  A    between atoms: _354  and  _355
REMARK  130  A    between atoms: _358  and  _360
REMARK  131  A    between atoms: _360  and  _361
REMARK  132  A    between atoms: _363  and  _365
REMARK  133  A    between atoms: _365  and  _366
REMARK  134  A    between atoms: _365  and  _368
REMARK  135  A    between atoms: _368  and  _369
REMARK  136  A    between atoms: _372  and  _374
REMARK  137  A    between atoms: _374  and  _375
REMARK  138  A    between atoms: _374  and  _377
REMARK  139  A    between atoms: _377  and  _378
REMARK  140  A    between atoms: _381  and  _383
REMARK  141  A    between atoms: _383  and  _384
REMARK  142  A    between atoms: _387  and  _389
REMARK  143  A    between atoms: _389  and  _390
REMARK  144  A    between atoms: _389  and  _392
REMARK  145  A    between atoms: _392  and  _393
REMARK  146  A    between atoms: _398  and  _399
REMARK  147  A    between atoms: _401  and  _403
REMARK  148  A    between atoms: _403  and  _404
REMARK  149  A    between atoms: _403  and  _406
REMARK  150  A    between atoms: _406  and  _407
REMARK  151  A    between atoms: _410  and  _412
REMARK  152  A    between atoms: _412  and  _413
REMARK  153  A    between atoms: _412  and  _415
REMARK  154  A    between atoms: _415  and  _416
REMARK  155  A    between atoms: _416  and  _417
REMARK  156  A    between atoms: _420  and  _422
REMARK  157  A    between atoms: _422  and  _423
REMARK  158  A    between atoms: _422  and  _425
REMARK  159  A    between atoms: _425  and  _426
REMARK  160  A    between atoms: _426  and  _427
REMARK  161  A    between atoms: _427  and  _428
REMARK  162  A    between atoms: _437  and  _439
REMARK  163  A    between atoms: _439  and  _440
REMARK  164  A    between atoms: _442  and  _444
REMARK  165  A    between atoms: _444  and  _445
REMARK  166  A    between atoms: _444  and  _447
REMARK  167  A    between atoms: _447  and  _448
REMARK  168  A    between atoms: _451  and  _453
REMARK  169  A    between atoms: _453  and  _454
REMARK                            x       y       z     vdW  Elec       q    Type
REMARK                         _______ _______ _______ _____ _____    ______ ____
ROOT
ATOM      1  O   HOH     1      33.360  68.499  16.933  0.00  0.00    +0.000 OA
ENDROOT
TORSDOF 0
REMARK  Name = ../refined-set-2016/2f7p/2f7p_pocket.pdb
REMARK  169 active torsions:
REMARK  status: ('A' for Active; 'I' for Inactive)
REMARK    1  A    between atoms: _1  and  _3
REMARK    2  A    between atoms: _14  and  _17
REMARK    3  A    between atoms: _17  and  _18
REMARK    4  A    between atoms: _25  and  _26
REMARK    5  A    between atoms: _33  and  _34
REMARK    6  A    between atoms: _39  and  _41
REMARK    7  A    between atoms: _41  and  _42
REMARK    8  A    between atoms: _44  and  _46
REMARK    9  A    between atoms: _46  and  _47
REMARK   10  A    between atoms: _46  and  _49
REMARK   11  A    between atoms: _49  and  _50
REMARK   12  A    between atoms: _60  and  _62
REMARK   13  A    between atoms: _62  and  _63
REMARK   14  A    between atoms: _62  and  _65
REMARK   15  A    between atoms: _65  and  _66
REMARK   16  A    between atoms: _69  and  _71
REMARK   17  A    between atoms: _71  and  _72
REMARK   18  A    between atoms: _71  and  _74
REMARK   19  A    between atoms: _74  and  _75
REMARK   20  A    between atoms: _80  and  _81
REMARK   21  A    between atoms: _83  and  _85
REMARK   22  A    between atoms: _85  and  _86
REMARK   23  A    between atoms: _85  and  _88
REMARK   24  A    between atoms: _88  and  _89
REMARK   25  A    between atoms: _89  and  _90
REMARK   26  A    between atoms: _93  and  _95
REMARK   27  A    between atoms: _95  and  _96
REMARK   28  A    between atoms: _95  and  _98
REMARK   29  A    between atoms: _98  and  _99
REMARK   30  A    between atoms: _99  and  _100
REMARK   31  A    between atoms: _102  and  _104
REMARK   32  A    between atoms: _104  and  _105
REMARK   33  A    between atoms: _104  and  _107
REMARK   34  A    between atoms: _107  and  _108
REMARK   35  A    between atoms: _111  and  _113
REMARK   36  A    between atoms: _113  and  _114
REMARK   37  A    between atoms: _113  and  _116
REMARK   38  A    between atoms: _116  and  _117
REMARK   39  A    between atoms: _117  and  _119
REMARK   40  A    between atoms: _119  and  ZN_456
REMARK   41  A    between atoms: _121  and  _122
REMARK   42  A    between atoms: _127  and  _129
REMARK   43  A    between atoms: _129  and  _130
REMARK   44  A    between atoms: _129  and  _132
REMARK   45  A    between atoms: _132  and  _133
REMARK   46  A    between atoms: _139  and  _141
REMARK   47  A    between atoms: _141  and  _142
REMARK   48  A    between atoms: _141  and  _144
REMARK   49  A    between atoms: _144  and  _145
REMARK   50  A    between atoms: _145  and  _146
REMARK   51  A    between atoms: _151  and  _153
REMARK   52  A    between atoms: _153  and  _154
REMARK   53  A    between atoms: _153  and  _156
REMARK   54  A    between atoms: _156  and  _157
REMARK   55  A    between atoms: _157  and  _158
REMARK   56  A    between atoms: _158  and  _159
REMARK   57  A    between atoms: _168  and  _170
REMARK   58  A    between atoms: _170  and  _171
REMARK   59  A    between atoms: _170  and  _173
REMARK   60  A    between atoms: _173  and  _174
REMARK   61  A    between atoms: _179  and  _180
REMARK   62  A    between atoms: _182  and  _184
REMARK   63  A    between atoms: _184  and  _185
REMARK   64  A    between atoms: _184  and  _187
REMARK   65  A    between atoms: _187  and  _188
REMARK   66  A    between atoms: _190  and  _192
REMARK   67  A    between atoms: _192  and  _193
REMARK   68  A    between atoms: _192  and  _195
REMARK   69  A    between atoms: _195  and  _196
REMARK   70  A    between atoms: _201  and  _202
REMARK   71  A    between atoms: _204  and  _206
REMARK   72  A    between atoms: _206  and  _207
REMARK   73  A    between atoms: _206  and  _209
REMARK   74  A    between atoms: _209  and  _210
REMARK   75  A    between atoms: _213  and  _215
REMARK   76  A    between atoms: _215  and  _216
REMARK   77  A    between atoms: _215  and  _218
REMARK   78  A    between atoms: _218  and  _219
REMARK   79  A    between atoms: _222  and  _224
REMARK   80  A    between atoms: _224  and  _225
REMARK   81  A    between atoms: _224  and  _227
REMARK   82  A    between atoms: _227  and  _228
REMARK   83  A    between atoms: _233  and  _235
REMARK   84  A    between atoms: _235  and  _236
REMARK   85  A    between atoms: _235  and  _238
REMARK   86  A    between atoms: _238  and  _239
REMARK   87  A    between atoms: _239  and  _240
REMARK   88  A    between atoms: _240  and  _241
REMARK   89  A    between atoms: _250  and  _252
REMARK   90  A    between atoms: _252  and  _253
REMARK   91  A    between atoms: _255  and  _257
REMARK   92  A    between atoms: _257  and  _258
REMARK   93  A    between atoms: _257  and  _260
REMARK   94  A    between atoms: _260  and  _261
REMARK   95  A    between atoms: _264  and  _266
REMARK   96  A    between atoms: _266  and  _267
REMARK   97  A    between atoms: _266  and  _269
REMARK   98  A    between atoms: _269  and  _270
REMARK   99  A    between atoms: _273  and  _275
REMARK  100  A    between atoms: _275  and  _276
REMARK  101  A    between atoms: _275  and  _278
REMARK  102  A    between atoms: _278  and  _279
REMARK  103  A    between atoms: _285  and  _287
REMARK  104  A    between atoms: _287  and  _288
REMARK  105  A    between atoms: _287  and  _290
REMARK  106  A    between atoms: _290  and  _291
REMARK  107  A    between atoms: _291  and  _292
REMARK  108  A    between atoms: _292  and  _293
REMARK  109  A    between atoms: _302  and  _304
REMARK  110  A    between atoms: _304  and  _305
REMARK  111  A    between atoms: _304  and  _307
REMARK  112  A    between atoms: _307  and  _308
REMARK  113  A    between atoms: _311  and  _313
REMARK  114  A    between atoms: _313  and  _314
REMARK  115  A    between atoms: _313  and  _316
REMARK  116  A    between atoms: _316  and  _317
REMARK  117  A    between atoms: _327  and  _329
REMARK  118  A    between atoms: _329  and  _330
REMARK  119  A    between atoms: _329  and  _332
REMARK  120  A    between atoms: _332  and  _333
REMARK  121  A    between atoms: _338  and  _340
REMARK  122  A    between atoms: _340  and  _341
REMARK  123  A    between atoms: _340  and  _343
REMARK  124  A    between atoms: _343  and  _344
REMARK  125  A    between atoms: _348  and  ZN_456
REMARK  126  A    between atoms: _349  and  _351
REMARK  127  A    between atoms: _351  and  _352
REMARK  128  A    between atoms: _351  and  _354
REMARK  129  A    between atoms: _354  and  _355
REMARK  130  A    between atoms: _358  and  _360
REMARK  131  A    between atoms: _360  and  _361
REMARK  132  A    between atoms: _363  and  _365
REMARK  133  A    between atoms: _365  and  _366
REMARK  134  A    between atoms: _365  and  _368
REMARK  135  A    between atoms: _368  and  _369
REMARK  136  A    between atoms: _372  and  _374
REMARK  137  A    between atoms: _374  and  _375
REMARK  138  A    between atoms: _374  and  _377
REMARK  139  A    between atoms: _377  and  _378
REMARK  140  A    between atoms: _381  and  _383
REMARK  141  A    between atoms: _383  and  _384
REMARK  142  A    between atoms: _387  and  _389
REMARK  143  A    between atoms: _389  and  _390
REMARK  144  A    between atoms: _389  and  _392
REMARK  145  A    between atoms: _392  and  _393
REMARK  146  A    between atoms: _398  and  _399
REMARK  147  A    between atoms: _401  and  _403
REMARK  148  A    between atoms: _403  and  _404
REMARK  149  A    between atoms: _403  and  _406
REMARK  150  A    between atoms: _406  and  _407
REMARK  151  A    between atoms: _410  and  _412
REMARK  152  A    between atoms: _412  and  _413
REMARK  153  A    between atoms: _412  and  _415
REMARK  154  A    between atoms: _415  and  _416
REMARK  155  A    between atoms: _416  and  _417
REMARK  156  A    between atoms: _420  and  _422
REMARK  157  A    between atoms: _422  and  _423
REMARK  158  A    between atoms: _422  and  _425
REMARK  159  A    between atoms: _425  and  _426
REMARK  160  A    between atoms: _426  and  _427
REMARK  161  A    between atoms: _427  and  _428
REMARK  162  A    between atoms: _437  and  _439
REMARK  163  A    between atoms: _439  and  _440
REMARK  164  A    between atoms: _442  and  _444
REMARK  165  A    between atoms: _444  and  _445
REMARK  166  A    between atoms: _444  and  _447
REMARK  167  A    between atoms: _447  and  _448
REMARK  168  A    between atoms: _451  and  _453
REMARK  169  A    between atoms: _453  and  _454
REMARK                            x       y       z     vdW  Elec       q    Type
REMARK                         _______ _______ _______ _____ _____    ______ ____
ROOT
ATOM      1  O   HOH     1      34.733  70.441  13.045  0.00  0.00    +0.000 OA
ENDROOT
TORSDOF 0
REMARK  Name = ../refined-set-2016/2f7p/2f7p_pocket.pdb
REMARK  169 active torsions:
REMARK  status: ('A' for Active; 'I' for Inactive)
REMARK    1  A    between atoms: _1  and  _3
REMARK    2  A    between atoms: _14  and  _17
REMARK    3  A    between atoms: _17  and  _18
REMARK    4  A    between atoms: _25  and  _26
REMARK    5  A    between atoms: _33  and  _34
REMARK    6  A    between atoms: _39  and  _41
REMARK    7  A    between atoms: _41  and  _42
REMARK    8  A    between atoms: _44  and  _46
REMARK    9  A    between atoms: _46  and  _47
REMARK   10  A    between atoms: _46  and  _49
REMARK   11  A    between atoms: _49  and  _50
REMARK   12  A    between atoms: _60  and  _62
REMARK   13  A    between atoms: _62  and  _63
REMARK   14  A    between atoms: _62  and  _65
REMARK   15  A    between atoms: _65  and  _66
REMARK   16  A    between atoms: _69  and  _71
REMARK   17  A    between atoms: _71  and  _72
REMARK   18  A    between atoms: _71  and  _74
REMARK   19  A    between atoms: _74  and  _75
REMARK   20  A    between atoms: _80  and  _81
REMARK   21  A    between atoms: _83  and  _85
REMARK   22  A    between atoms: _85  and  _86
REMARK   23  A    between atoms: _85  and  _88
REMARK   24  A    between atoms: _88  and  _89
REMARK   25  A    between atoms: _89  and  _90
REMARK   26  A    between atoms: _93  and  _95
REMARK   27  A    between atoms: _95  and  _96
REMARK   28  A    between atoms: _95  and  _98
REMARK   29  A    between atoms: _98  and  _99
REMARK   30  A    between atoms: _99  and  _100
REMARK   31  A    between atoms: _102  and  _104
REMARK   32  A    between atoms: _104  and  _105
REMARK   33  A    between atoms: _104  and  _107
REMARK   34  A    between atoms: _107  and  _108
REMARK   35  A    between atoms: _111  and  _113
REMARK   36  A    between atoms: _113  and  _114
REMARK   37  A    between atoms: _113  and  _116
REMARK   38  A    between atoms: _116  and  _117
REMARK   39  A    between atoms: _117  and  _119
REMARK   40  A    between atoms: _119  and  ZN_456
REMARK   41  A    between atoms: _121  and  _122
REMARK   42  A    between atoms: _127  and  _129
REMARK   43  A    between atoms: _129  and  _130
REMARK   44  A    between atoms: _129  and  _132
REMARK   45  A    between atoms: _132  and  _133
REMARK   46  A    between atoms: _139  and  _141
REMARK   47  A    between atoms: _141  and  _142
REMARK   48  A    between atoms: _141  and  _144
REMARK   49  A    between atoms: _144  and  _145
REMARK   50  A    between atoms: _145  and  _146
REMARK   51  A    between atoms: _151  and  _153
REMARK   52  A    between atoms: _153  and  _154
REMARK   53  A    between atoms: _153  and  _156
REMARK   54  A    between atoms: _156  and  _157
REMARK   55  A    between atoms: _157  and  _158
REMARK   56  A    between atoms: _158  and  _159
REMARK   57  A    between atoms: _168  and  _170
REMARK   58  A    between atoms: _170  and  _171
REMARK   59  A    between atoms: _170  and  _173
REMARK   60  A    between atoms: _173  and  _174
REMARK   61  A    between atoms: _179  and  _180
REMARK   62  A    between atoms: _182  and  _184
REMARK   63  A    between atoms: _184  and  _185
REMARK   64  A    between atoms: _184  and  _187
REMARK   65  A    between atoms: _187  and  _188
REMARK   66  A    between atoms: _190  and  _192
REMARK   67  A    between atoms: _192  and  _193
REMARK   68  A    between atoms: _192  and  _195
REMARK   69  A    between atoms: _195  and  _196
REMARK   70  A    between atoms: _201  and  _202
REMARK   71  A    between atoms: _204  and  _206
REMARK   72  A    between atoms: _206  and  _207
REMARK   73  A    between atoms: _206  and  _209
REMARK   74  A    between atoms: _209  and  _210
REMARK   75  A    between atoms: _213  and  _215
REMARK   76  A    between atoms: _215  and  _216
REMARK   77  A    between atoms: _215  and  _218
REMARK   78  A    between atoms: _218  and  _219
REMARK   79  A    between atoms: _222  and  _224
REMARK   80  A    between atoms: _224  and  _225
REMARK   81  A    between atoms: _224  and  _227
REMARK   82  A    between atoms: _227  and  _228
REMARK   83  A    between atoms: _233  and  _235
REMARK   84  A    between atoms: _235  and  _236
REMARK   85  A    between atoms: _235  and  _238
REMARK   86  A    between atoms: _238  and  _239
REMARK   87  A    between atoms: _239  and  _240
REMARK   88  A    between atoms: _240  and  _241
REMARK   89  A    between atoms: _250  and  _252
REMARK   90  A    between atoms: _252  and  _253
REMARK   91  A    between atoms: _255  and  _257
REMARK   92  A    between atoms: _257  and  _258
REMARK   93  A    between atoms: _257  and  _260
REMARK   94  A    between atoms: _260  and  _261
REMARK   95  A    between atoms: _264  and  _266
REMARK   96  A    between atoms: _266  and  _267
REMARK   97  A    between atoms: _266  and  _269
REMARK   98  A    between atoms: _269  and  _270
REMARK   99  A    between atoms: _273  and  _275
REMARK  100  A    between atoms: _275  and  _276
REMARK  101  A    between atoms: _275  and  _278
REMARK  102  A    between atoms: _278  and  _279
REMARK  103  A    between atoms: _285  and  _287
REMARK  104  A    between atoms: _287  and  _288
REMARK  105  A    between atoms: _287  and  _290
REMARK  106  A    between atoms: _290  and  _291
REMARK  107  A    between atoms: _291  and  _292
REMARK  108  A    between atoms: _292  and  _293
REMARK  109  A    between atoms: _302  and  _304
REMARK  110  A    between atoms: _304  and  _305
REMARK  111  A    between atoms: _304  and  _307
REMARK  112  A    between atoms: _307  and  _308
REMARK  113  A    between atoms: _311  and  _313
REMARK  114  A    between atoms: _313  and  _314
REMARK  115  A    between atoms: _313  and  _316
REMARK  116  A    between atoms: _316  and  _317
REMARK  117  A    between atoms: _327  and  _329
REMARK  118  A    between atoms: _329  and  _330
REMARK  119  A    between atoms: _329  and  _332
REMARK  120  A    between atoms: _332  and  _333
REMARK  121  A    between atoms: _338  and  _340
REMARK  122  A    between atoms: _340  and  _341
REMARK  123  A    between atoms: _340  and  _343
REMARK  124  A    between atoms: _343  and  _344
REMARK  125  A    between atoms: _348  and  ZN_456
REMARK  126  A    between atoms: _349  and  _351
REMARK  127  A    between atoms: _351  and  _352
REMARK  128  A    between atoms: _351  and  _354
REMARK  129  A    between atoms: _354  and  _355
REMARK  130  A    between atoms: _358  and  _360
REMARK  131  A    between atoms: _360  and  _361
REMARK  132  A    between atoms: _363  and  _365
REMARK  133  A    between atoms: _365  and  _366
REMARK  134  A    between atoms: _365  and  _368
REMARK  135  A    between atoms: _368  and  _369
REMARK  136  A    between atoms: _372  and  _374
REMARK  137  A    between atoms: _374  and  _375
REMARK  138  A    between atoms: _374  and  _377
REMARK  139  A    between atoms: _377  and  _378
REMARK  140  A    between atoms: _381  and  _383
REMARK  141  A    between atoms: _383  and  _384
REMARK  142  A    between atoms: _387  and  _389
REMARK  143  A    between atoms: _389  and  _390
REMARK  144  A    between atoms: _389  and  _392
REMARK  145  A    between atoms: _392  and  _393
REMARK  146  A    between atoms: _398  and  _399
REMARK  147  A    between atoms: _401  and  _403
REMARK  148  A    between atoms: _403  and  _404
REMARK  149  A    between atoms: _403  and  _406
REMARK  150  A    between atoms: _406  and  _407
REMARK  151  A    between atoms: _410  and  _412
REMARK  152  A    between atoms: _412  and  _413
REMARK  153  A    between atoms: _412  and  _415
REMARK  154  A    between atoms: _415  and  _416
REMARK  155  A    between atoms: _416  and  _417
REMARK  156  A    between atoms: _420  and  _422
REMARK  157  A    between atoms: _422  and  _423
REMARK  158  A    between atoms: _422  and  _425
REMARK  159  A    between atoms: _425  and  _426
REMARK  160  A    between atoms: _426  and  _427
REMARK  161  A    between atoms: _427  and  _428
REMARK  162  A    between atoms: _437  and  _439
REMARK  163  A    between atoms: _439  and  _440
REMARK  164  A    between atoms: _442  and  _444
REMARK  165  A    between atoms: _444  and  _445
REMARK  166  A    between atoms: _444  and  _447
REMARK  167  A    between atoms: _447  and  _448
REMARK  168  A    between atoms: _451  and  _453
REMARK  169  A    between atoms: _453  and  _454
REMARK                            x       y       z     vdW  Elec       q    Type
REMARK                         _______ _______ _______ _____ _____    ______ ____
ROOT
ATOM      1  O   HOH     1      34.191  67.784  12.253  0.00  0.00    +0.000 OA
ENDROOT
TORSDOF 0
REMARK  Name = ../refined-set-2016/2f7p/2f7p_pocket.pdb
REMARK  169 active torsions:
REMARK  status: ('A' for Active; 'I' for Inactive)
REMARK    1  A    between atoms: _1  and  _3
REMARK    2  A    between atoms: _14  and  _17
REMARK    3  A    between atoms: _17  and  _18
REMARK    4  A    between atoms: _25  and  _26
REMARK    5  A    between atoms: _33  and  _34
REMARK    6  A    between atoms: _39  and  _41
REMARK    7  A    between atoms: _41  and  _42
REMARK    8  A    between atoms: _44  and  _46
REMARK    9  A    between atoms: _46  and  _47
REMARK   10  A    between atoms: _46  and  _49
REMARK   11  A    between atoms: _49  and  _50
REMARK   12  A    between atoms: _60  and  _62
REMARK   13  A    between atoms: _62  and  _63
REMARK   14  A    between atoms: _62  and  _65
REMARK   15  A    between atoms: _65  and  _66
REMARK   16  A    between atoms: _69  and  _71
REMARK   17  A    between atoms: _71  and  _72
REMARK   18  A    between atoms: _71  and  _74
REMARK   19  A    between atoms: _74  and  _75
REMARK   20  A    between atoms: _80  and  _81
REMARK   21  A    between atoms: _83  and  _85
REMARK   22  A    between atoms: _85  and  _86
REMARK   23  A    between atoms: _85  and  _88
REMARK   24  A    between atoms: _88  and  _89
REMARK   25  A    between atoms: _89  and  _90
REMARK   26  A    between atoms: _93  and  _95
REMARK   27  A    between atoms: _95  and  _96
REMARK   28  A    between atoms: _95  and  _98
REMARK   29  A    between atoms: _98  and  _99
REMARK   30  A    between atoms: _99  and  _100
REMARK   31  A    between atoms: _102  and  _104
REMARK   32  A    between atoms: _104  and  _105
REMARK   33  A    between atoms: _104  and  _107
REMARK   34  A    between atoms: _107  and  _108
REMARK   35  A    between atoms: _111  and  _113
REMARK   36  A    between atoms: _113  and  _114
REMARK   37  A    between atoms: _113  and  _116
REMARK   38  A    between atoms: _116  and  _117
REMARK   39  A    between atoms: _117  and  _119
REMARK   40  A    between atoms: _119  and  ZN_456
REMARK   41  A    between atoms: _121  and  _122
REMARK   42  A    between atoms: _127  and  _129
REMARK   43  A    between atoms: _129  and  _130
REMARK   44  A    between atoms: _129  and  _132
REMARK   45  A    between atoms: _132  and  _133
REMARK   46  A    between atoms: _139  and  _141
REMARK   47  A    between atoms: _141  and  _142
REMARK   48  A    between atoms: _141  and  _144
REMARK   49  A    between atoms: _144  and  _145
REMARK   50  A    between atoms: _145  and  _146
REMARK   51  A    between atoms: _151  and  _153
REMARK   52  A    between atoms: _153  and  _154
REMARK   53  A    between atoms: _153  and  _156
REMARK   54  A    between atoms: _156  and  _157
REMARK   55  A    between atoms: _157  and  _158
REMARK   56  A    between atoms: _158  and  _159
REMARK   57  A    between atoms: _168  and  _170
REMARK   58  A    between atoms: _170  and  _171
REMARK   59  A    between atoms: _170  and  _173
REMARK   60  A    between atoms: _173  and  _174
REMARK   61  A    between atoms: _179  and  _180
REMARK   62  A    between atoms: _182  and  _184
REMARK   63  A    between atoms: _184  and  _185
REMARK   64  A    between atoms: _184  and  _187
REMARK   65  A    between atoms: _187  and  _188
REMARK   66  A    between atoms: _190  and  _192
REMARK   67  A    between atoms: _192  and  _193
REMARK   68  A    between atoms: _192  and  _195
REMARK   69  A    between atoms: _195  and  _196
REMARK   70  A    between atoms: _201  and  _202
REMARK   71  A    between atoms: _204  and  _206
REMARK   72  A    between atoms: _206  and  _207
REMARK   73  A    between atoms: _206  and  _209
REMARK   74  A    between atoms: _209  and  _210
REMARK   75  A    between atoms: _213  and  _215
REMARK   76  A    between atoms: _215  and  _216
REMARK   77  A    between atoms: _215  and  _218
REMARK   78  A    between atoms: _218  and  _219
REMARK   79  A    between atoms: _222  and  _224
REMARK   80  A    between atoms: _224  and  _225
REMARK   81  A    between atoms: _224  and  _227
REMARK   82  A    between atoms: _227  and  _228
REMARK   83  A    between atoms: _233  and  _235
REMARK   84  A    between atoms: _235  and  _236
REMARK   85  A    between atoms: _235  and  _238
REMARK   86  A    between atoms: _238  and  _239
REMARK   87  A    between atoms: _239  and  _240
REMARK   88  A    between atoms: _240  and  _241
REMARK   89  A    between atoms: _250  and  _252
REMARK   90  A    between atoms: _252  and  _253
REMARK   91  A    between atoms: _255  and  _257
REMARK   92  A    between atoms: _257  and  _258
REMARK   93  A    between atoms: _257  and  _260
REMARK   94  A    between atoms: _260  and  _261
REMARK   95  A    between atoms: _264  and  _266
REMARK   96  A    between atoms: _266  and  _267
REMARK   97  A    between atoms: _266  and  _269
REMARK   98  A    between atoms: _269  and  _270
REMARK   99  A    between atoms: _273  and  _275
REMARK  100  A    between atoms: _275  and  _276
REMARK  101  A    between atoms: _275  and  _278
REMARK  102  A    between atoms: _278  and  _279
REMARK  103  A    between atoms: _285  and  _287
REMARK  104  A    between atoms: _287  and  _288
REMARK  105  A    between atoms: _287  and  _290
REMARK  106  A    between atoms: _290  and  _291
REMARK  107  A    between atoms: _291  and  _292
REMARK  108  A    between atoms: _292  and  _293
REMARK  109  A    between atoms: _302  and  _304
REMARK  110  A    between atoms: _304  and  _305
REMARK  111  A    between atoms: _304  and  _307
REMARK  112  A    between atoms: _307  and  _308
REMARK  113  A    between atoms: _311  and  _313
REMARK  114  A    between atoms: _313  and  _314
REMARK  115  A    between atoms: _313  and  _316
REMARK  116  A    between atoms: _316  and  _317
REMARK  117  A    between atoms: _327  and  _329
REMARK  118  A    between atoms: _329  and  _330
REMARK  119  A    between atoms: _329  and  _332
REMARK  120  A    between atoms: _332  and  _333
REMARK  121  A    between atoms: _338  and  _340
REMARK  122  A    between atoms: _340  and  _341
REMARK  123  A    between atoms: _340  and  _343
REMARK  124  A    between atoms: _343  and  _344
REMARK  125  A    between atoms: _348  and  ZN_456
REMARK  126  A    between atoms: _349  and  _351
REMARK  127  A    between atoms: _351  and  _352
REMARK  128  A    between atoms: _351  and  _354
REMARK  129  A    between atoms: _354  and  _355
REMARK  130  A    between atoms: _358  and  _360
REMARK  131  A    between atoms: _360  and  _361
REMARK  132  A    between atoms: _363  and  _365
REMARK  133  A    between atoms: _365  and  _366
REMARK  134  A    between atoms: _365  and  _368
REMARK  135  A    between atoms: _368  and  _369
REMARK  136  A    between atoms: _372  and  _374
REMARK  137  A    between atoms: _374  and  _375
REMARK  138  A    between atoms: _374  and  _377
REMARK  139  A    between atoms: _377  and  _378
REMARK  140  A    between atoms: _381  and  _383
REMARK  141  A    between atoms: _383  and  _384
REMARK  142  A    between atoms: _387  and  _389
REMARK  143  A    between atoms: _389  and  _390
REMARK  144  A    between atoms: _389  and  _392
REMARK  145  A    between atoms: _392  and  _393
REMARK  146  A    between atoms: _398  and  _399
REMARK  147  A    between atoms: _401  and  _403
REMARK  148  A    between atoms: _403  and  _404
REMARK  149  A    between atoms: _403  and  _406
REMARK  150  A    between atoms: _406  and  _407
REMARK  151  A    between atoms: _410  and  _412
REMARK  152  A    between atoms: _412  and  _413
REMARK  153  A    between atoms: _412  and  _415
REMARK  154  A    between atoms: _415  and  _416
REMARK  155  A    between atoms: _416  and  _417
REMARK  156  A    between atoms: _420  and  _422
REMARK  157  A    between atoms: _422  and  _423
REMARK  158  A    between atoms: _422  and  _425
REMARK  159  A    between atoms: _425  and  _426
REMARK  160  A    between atoms: _426  and  _427
REMARK  161  A    between atoms: _427  and  _428
REMARK  162  A    between atoms: _437  and  _439
REMARK  163  A    between atoms: _439  and  _440
REMARK  164  A    between atoms: _442  and  _444
REMARK  165  A    between atoms: _444  and  _445
REMARK  166  A    between atoms: _444  and  _447
REMARK  167  A    between atoms: _447  and  _448
REMARK  168  A    between atoms: _451  and  _453
REMARK  169  A    between atoms: _453  and  _454
REMARK                            x       y       z     vdW  Elec       q    Type
REMARK                         _______ _______ _______ _____ _____    ______ ____
ROOT
ATOM      1  O   HOH     1      32.036  71.659  13.561  0.00  0.00    +0.000 OA
ENDROOT
TORSDOF 0
REMARK  Name = ../refined-set-2016/2f7p/2f7p_pocket.pdb
REMARK  169 active torsions:
REMARK  status: ('A' for Active; 'I' for Inactive)
REMARK    1  A    between atoms: _1  and  _3
REMARK    2  A    between atoms: _14  and  _17
REMARK    3  A    between atoms: _17  and  _18
REMARK    4  A    between atoms: _25  and  _26
REMARK    5  A    between atoms: _33  and  _34
REMARK    6  A    between atoms: _39  and  _41
REMARK    7  A    between atoms: _41  and  _42
REMARK    8  A    between atoms: _44  and  _46
REMARK    9  A    between atoms: _46  and  _47
REMARK   10  A    between atoms: _46  and  _49
REMARK   11  A    between atoms: _49  and  _50
REMARK   12  A    between atoms: _60  and  _62
REMARK   13  A    between atoms: _62  and  _63
REMARK   14  A    between atoms: _62  and  _65
REMARK   15  A    between atoms: _65  and  _66
REMARK   16  A    between atoms: _69  and  _71
REMARK   17  A    between atoms: _71  and  _72
REMARK   18  A    between atoms: _71  and  _74
REMARK   19  A    between atoms: _74  and  _75
REMARK   20  A    between atoms: _80  and  _81
REMARK   21  A    between atoms: _83  and  _85
REMARK   22  A    between atoms: _85  and  _86
REMARK   23  A    between atoms: _85  and  _88
REMARK   24  A    between atoms: _88  and  _89
REMARK   25  A    between atoms: _89  and  _90
REMARK   26  A    between atoms: _93  and  _95
REMARK   27  A    between atoms: _95  and  _96
REMARK   28  A    between atoms: _95  and  _98
REMARK   29  A    between atoms: _98  and  _99
REMARK   30  A    between atoms: _99  and  _100
REMARK   31  A    between atoms: _102  and  _104
REMARK   32  A    between atoms: _104  and  _105
REMARK   33  A    between atoms: _104  and  _107
REMARK   34  A    between atoms: _107  and  _108
REMARK   35  A    between atoms: _111  and  _113
REMARK   36  A    between atoms: _113  and  _114
REMARK   37  A    between atoms: _113  and  _116
REMARK   38  A    between atoms: _116  and  _117
REMARK   39  A    between atoms: _117  and  _119
REMARK   40  A    between atoms: _119  and  ZN_456
REMARK   41  A    between atoms: _121  and  _122
REMARK   42  A    between atoms: _127  and  _129
REMARK   43  A    between atoms: _129  and  _130
REMARK   44  A    between atoms: _129  and  _132
REMARK   45  A    between atoms: _132  and  _133
REMARK   46  A    between atoms: _139  and  _141
REMARK   47  A    between atoms: _141  and  _142
REMARK   48  A    between atoms: _141  and  _144
REMARK   49  A    between atoms: _144  and  _145
REMARK   50  A    between atoms: _145  and  _146
REMARK   51  A    between atoms: _151  and  _153
REMARK   52  A    between atoms: _153  and  _154
REMARK   53  A    between atoms: _153  and  _156
REMARK   54  A    between atoms: _156  and  _157
REMARK   55  A    between atoms: _157  and  _158
REMARK   56  A    between atoms: _158  and  _159
REMARK   57  A    between atoms: _168  and  _170
REMARK   58  A    between atoms: _170  and  _171
REMARK   59  A    between atoms: _170  and  _173
REMARK   60  A    between atoms: _173  and  _174
REMARK   61  A    between atoms: _179  and  _180
REMARK   62  A    between atoms: _182  and  _184
REMARK   63  A    between atoms: _184  and  _185
REMARK   64  A    between atoms: _184  and  _187
REMARK   65  A    between atoms: _187  and  _188
REMARK   66  A    between atoms: _190  and  _192
REMARK   67  A    between atoms: _192  and  _193
REMARK   68  A    between atoms: _192  and  _195
REMARK   69  A    between atoms: _195  and  _196
REMARK   70  A    between atoms: _201  and  _202
REMARK   71  A    between atoms: _204  and  _206
REMARK   72  A    between atoms: _206  and  _207
REMARK   73  A    between atoms: _206  and  _209
REMARK   74  A    between atoms: _209  and  _210
REMARK   75  A    between atoms: _213  and  _215
REMARK   76  A    between atoms: _215  and  _216
REMARK   77  A    between atoms: _215  and  _218
REMARK   78  A    between atoms: _218  and  _219
REMARK   79  A    between atoms: _222  and  _224
REMARK   80  A    between atoms: _224  and  _225
REMARK   81  A    between atoms: _224  and  _227
REMARK   82  A    between atoms: _227  and  _228
REMARK   83  A    between atoms: _233  and  _235
REMARK   84  A    between atoms: _235  and  _236
REMARK   85  A    between atoms: _235  and  _238
REMARK   86  A    between atoms: _238  and  _239
REMARK   87  A    between atoms: _239  and  _240
REMARK   88  A    between atoms: _240  and  _241
REMARK   89  A    between atoms: _250  and  _252
REMARK   90  A    between atoms: _252  and  _253
REMARK   91  A    between atoms: _255  and  _257
REMARK   92  A    between atoms: _257  and  _258
REMARK   93  A    between atoms: _257  and  _260
REMARK   94  A    between atoms: _260  and  _261
REMARK   95  A    between atoms: _264  and  _266
REMARK   96  A    between atoms: _266  and  _267
REMARK   97  A    between atoms: _266  and  _269
REMARK   98  A    between atoms: _269  and  _270
REMARK   99  A    between atoms: _273  and  _275
REMARK  100  A    between atoms: _275  and  _276
REMARK  101  A    between atoms: _275  and  _278
REMARK  102  A    between atoms: _278  and  _279
REMARK  103  A    between atoms: _285  and  _287
REMARK  104  A    between atoms: _287  and  _288
REMARK  105  A    between atoms: _287  and  _290
REMARK  106  A    between atoms: _290  and  _291
REMARK  107  A    between atoms: _291  and  _292
REMARK  108  A    between atoms: _292  and  _293
REMARK  109  A    between atoms: _302  and  _304
REMARK  110  A    between atoms: _304  and  _305
REMARK  111  A    between atoms: _304  and  _307
REMARK  112  A    between atoms: _307  and  _308
REMARK  113  A    between atoms: _311  and  _313
REMARK  114  A    between atoms: _313  and  _314
REMARK  115  A    between atoms: _313  and  _316
REMARK  116  A    between atoms: _316  and  _317
REMARK  117  A    between atoms: _327  and  _329
REMARK  118  A    between atoms: _329  and  _330
REMARK  119  A    between atoms: _329  and  _332
REMARK  120  A    between atoms: _332  and  _333
REMARK  121  A    between atoms: _338  and  _340
REMARK  122  A    between atoms: _340  and  _341
REMARK  123  A    between atoms: _340  and  _343
REMARK  124  A    between atoms: _343  and  _344
REMARK  125  A    between atoms: _348  and  ZN_456
REMARK  126  A    between atoms: _349  and  _351
REMARK  127  A    between atoms: _351  and  _352
REMARK  128  A    between atoms: _351  and  _354
REMARK  129  A    between atoms: _354  and  _355
REMARK  130  A    between atoms: _358  and  _360
REMARK  131  A    between atoms: _360  and  _361
REMARK  132  A    between atoms: _363  and  _365
REMARK  133  A    between atoms: _365  and  _366
REMARK  134  A    between atoms: _365  and  _368
REMARK  135  A    between atoms: _368  and  _369
REMARK  136  A    between atoms: _372  and  _374
REMARK  137  A    between atoms: _374  and  _375
REMARK  138  A    between atoms: _374  and  _377
REMARK  139  A    between atoms: _377  and  _378
REMARK  140  A    between atoms: _381  and  _383
REMARK  141  A    between atoms: _383  and  _384
REMARK  142  A    between atoms: _387  and  _389
REMARK  143  A    between atoms: _389  and  _390
REMARK  144  A    between atoms: _389  and  _392
REMARK  145  A    between atoms: _392  and  _393
REMARK  146  A    between atoms: _398  and  _399
REMARK  147  A    between atoms: _401  and  _403
REMARK  148  A    between atoms: _403  and  _404
REMARK  149  A    between atoms: _403  and  _406
REMARK  150  A    between atoms: _406  and  _407
REMARK  151  A    between atoms: _410  and  _412
REMARK  152  A    between atoms: _412  and  _413
REMARK  153  A    between atoms: _412  and  _415
REMARK  154  A    between atoms: _415  and  _416
REMARK  155  A    between atoms: _416  and  _417
REMARK  156  A    between atoms: _420  and  _422
REMARK  157  A    between atoms: _422  and  _423
REMARK  158  A    between atoms: _422  and  _425
REMARK  159  A    between atoms: _425  and  _426
REMARK  160  A    between atoms: _426  and  _427
REMARK  161  A    between atoms: _427  and  _428
REMARK  162  A    between atoms: _437  and  _439
REMARK  163  A    between atoms: _439  and  _440
REMARK  164  A    between atoms: _442  and  _444
REMARK  165  A    between atoms: _444  and  _445
REMARK  166  A    between atoms: _444  and  _447
REMARK  167  A    between atoms: _447  and  _448
REMARK  168  A    between atoms: _451  and  _453
REMARK  169  A    between atoms: _453  and  _454
REMARK                            x       y       z     vdW  Elec       q    Type
REMARK                         _______ _______ _______ _____ _____    ______ ____
ROOT
ATOM      1  O   HOH     1      29.698  72.297  12.486  0.00  0.00    +0.000 OA
ENDROOT
TORSDOF 0
REMARK  Name = ../refined-set-2016/2f7p/2f7p_pocket.pdb
REMARK  169 active torsions:
REMARK  status: ('A' for Active; 'I' for Inactive)
REMARK    1  A    between atoms: _1  and  _3
REMARK    2  A    between atoms: _14  and  _17
REMARK    3  A    between atoms: _17  and  _18
REMARK    4  A    between atoms: _25  and  _26
REMARK    5  A    between atoms: _33  and  _34
REMARK    6  A    between atoms: _39  and  _41
REMARK    7  A    between atoms: _41  and  _42
REMARK    8  A    between atoms: _44  and  _46
REMARK    9  A    between atoms: _46  and  _47
REMARK   10  A    between atoms: _46  and  _49
REMARK   11  A    between atoms: _49  and  _50
REMARK   12  A    between atoms: _60  and  _62
REMARK   13  A    between atoms: _62  and  _63
REMARK   14  A    between atoms: _62  and  _65
REMARK   15  A    between atoms: _65  and  _66
REMARK   16  A    between atoms: _69  and  _71
REMARK   17  A    between atoms: _71  and  _72
REMARK   18  A    between atoms: _71  and  _74
REMARK   19  A    between atoms: _74  and  _75
REMARK   20  A    between atoms: _80  and  _81
REMARK   21  A    between atoms: _83  and  _85
REMARK   22  A    between atoms: _85  and  _86
REMARK   23  A    between atoms: _85  and  _88
REMARK   24  A    between atoms: _88  and  _89
REMARK   25  A    between atoms: _89  and  _90
REMARK   26  A    between atoms: _93  and  _95
REMARK   27  A    between atoms: _95  and  _96
REMARK   28  A    between atoms: _95  and  _98
REMARK   29  A    between atoms: _98  and  _99
REMARK   30  A    between atoms: _99  and  _100
REMARK   31  A    between atoms: _102  and  _104
REMARK   32  A    between atoms: _104  and  _105
REMARK   33  A    between atoms: _104  and  _107
REMARK   34  A    between atoms: _107  and  _108
REMARK   35  A    between atoms: _111  and  _113
REMARK   36  A    between atoms: _113  and  _114
REMARK   37  A    between atoms: _113  and  _116
REMARK   38  A    between atoms: _116  and  _117
REMARK   39  A    between atoms: _117  and  _119
REMARK   40  A    between atoms: _119  and  ZN_456
REMARK   41  A    between atoms: _121  and  _122
REMARK   42  A    between atoms: _127  and  _129
REMARK   43  A    between atoms: _129  and  _130
REMARK   44  A    between atoms: _129  and  _132
REMARK   45  A    between atoms: _132  and  _133
REMARK   46  A    between atoms: _139  and  _141
REMARK   47  A    between atoms: _141  and  _142
REMARK   48  A    between atoms: _141  and  _144
REMARK   49  A    between atoms: _144  and  _145
REMARK   50  A    between atoms: _145  and  _146
REMARK   51  A    between atoms: _151  and  _153
REMARK   52  A    between atoms: _153  and  _154
REMARK   53  A    between atoms: _153  and  _156
REMARK   54  A    between atoms: _156  and  _157
REMARK   55  A    between atoms: _157  and  _158
REMARK   56  A    between atoms: _158  and  _159
REMARK   57  A    between atoms: _168  and  _170
REMARK   58  A    between atoms: _170  and  _171
REMARK   59  A    between atoms: _170  and  _173
REMARK   60  A    between atoms: _173  and  _174
REMARK   61  A    between atoms: _179  and  _180
REMARK   62  A    between atoms: _182  and  _184
REMARK   63  A    between atoms: _184  and  _185
REMARK   64  A    between atoms: _184  and  _187
REMARK   65  A    between atoms: _187  and  _188
REMARK   66  A    between atoms: _190  and  _192
REMARK   67  A    between atoms: _192  and  _193
REMARK   68  A    between atoms: _192  and  _195
REMARK   69  A    between atoms: _195  and  _196
REMARK   70  A    between atoms: _201  and  _202
REMARK   71  A    between atoms: _204  and  _206
REMARK   72  A    between atoms: _206  and  _207
REMARK   73  A    between atoms: _206  and  _209
REMARK   74  A    between atoms: _209  and  _210
REMARK   75  A    between atoms: _213  and  _215
REMARK   76  A    between atoms: _215  and  _216
REMARK   77  A    between atoms: _215  and  _218
REMARK   78  A    between atoms: _218  and  _219
REMARK   79  A    between atoms: _222  and  _224
REMARK   80  A    between atoms: _224  and  _225
REMARK   81  A    between atoms: _224  and  _227
REMARK   82  A    between atoms: _227  and  _228
REMARK   83  A    between atoms: _233  and  _235
REMARK   84  A    between atoms: _235  and  _236
REMARK   85  A    between atoms: _235  and  _238
REMARK   86  A    between atoms: _238  and  _239
REMARK   87  A    between atoms: _239  and  _240
REMARK   88  A    between atoms: _240  and  _241
REMARK   89  A    between atoms: _250  and  _252
REMARK   90  A    between atoms: _252  and  _253
REMARK   91  A    between atoms: _255  and  _257
REMARK   92  A    between atoms: _257  and  _258
REMARK   93  A    between atoms: _257  and  _260
REMARK   94  A    between atoms: _260  and  _261
REMARK   95  A    between atoms: _264  and  _266
REMARK   96  A    between atoms: _266  and  _267
REMARK   97  A    between atoms: _266  and  _269
REMARK   98  A    between atoms: _269  and  _270
REMARK   99  A    between atoms: _273  and  _275
REMARK  100  A    between atoms: _275  and  _276
REMARK  101  A    between atoms: _275  and  _278
REMARK  102  A    between atoms: _278  and  _279
REMARK  103  A    between atoms: _285  and  _287
REMARK  104  A    between atoms: _287  and  _288
REMARK  105  A    between atoms: _287  and  _290
REMARK  106  A    between atoms: _290  and  _291
REMARK  107  A    between atoms: _291  and  _292
REMARK  108  A    between atoms: _292  and  _293
REMARK  109  A    between atoms: _302  and  _304
REMARK  110  A    between atoms: _304  and  _305
REMARK  111  A    between atoms: _304  and  _307
REMARK  112  A    between atoms: _307  and  _308
REMARK  113  A    between atoms: _311  and  _313
REMARK  114  A    between atoms: _313  and  _314
REMARK  115  A    between atoms: _313  and  _316
REMARK  116  A    between atoms: _316  and  _317
REMARK  117  A    between atoms: _327  and  _329
REMARK  118  A    between atoms: _329  and  _330
REMARK  119  A    between atoms: _329  and  _332
REMARK  120  A    between atoms: _332  and  _333
REMARK  121  A    between atoms: _338  and  _340
REMARK  122  A    between atoms: _340  and  _341
REMARK  123  A    between atoms: _340  and  _343
REMARK  124  A    between atoms: _343  and  _344
REMARK  125  A    between atoms: _348  and  ZN_456
REMARK  126  A    between atoms: _349  and  _351
REMARK  127  A    between atoms: _351  and  _352
REMARK  128  A    between atoms: _351  and  _354
REMARK  129  A    between atoms: _354  and  _355
REMARK  130  A    between atoms: _358  and  _360
REMARK  131  A    between atoms: _360  and  _361
REMARK  132  A    between atoms: _363  and  _365
REMARK  133  A    between atoms: _365  and  _366
REMARK  134  A    between atoms: _365  and  _368
REMARK  135  A    between atoms: _368  and  _369
REMARK  136  A    between atoms: _372  and  _374
REMARK  137  A    between atoms: _374  and  _375
REMARK  138  A    between atoms: _374  and  _377
REMARK  139  A    between atoms: _377  and  _378
REMARK  140  A    between atoms: _381  and  _383
REMARK  141  A    between atoms: _383  and  _384
REMARK  142  A    between atoms: _387  and  _389
REMARK  143  A    between atoms: _389  and  _390
REMARK  144  A    between atoms: _389  and  _392
REMARK  145  A    between atoms: _392  and  _393
REMARK  146  A    between atoms: _398  and  _399
REMARK  147  A    between atoms: _401  and  _403
REMARK  148  A    between atoms: _403  and  _404
REMARK  149  A    between atoms: _403  and  _406
REMARK  150  A    between atoms: _406  and  _407
REMARK  151  A    between atoms: _410  and  _412
REMARK  152  A    between atoms: _412  and  _413
REMARK  153  A    between atoms: _412  and  _415
REMARK  154  A    between atoms: _415  and  _416
REMARK  155  A    between atoms: _416  and  _417
REMARK  156  A    between atoms: _420  and  _422
REMARK  157  A    between atoms: _422  and  _423
REMARK  158  A    between atoms: _422  and  _425
REMARK  159  A    between atoms: _425  and  _426
REMARK  160  A    between atoms: _426  and  _427
REMARK  161  A    between atoms: _427  and  _428
REMARK  162  A    between atoms: _437  and  _439
REMARK  163  A    between atoms: _439  and  _440
REMARK  164  A    between atoms: _442  and  _444
REMARK  165  A    between atoms: _444  and  _445
REMARK  166  A    between atoms: _444  and  _447
REMARK  167  A    between atoms: _447  and  _448
REMARK  168  A    between atoms: _451  and  _453
REMARK  169  A    between atoms: _453  and  _454
REMARK                            x       y       z     vdW  Elec       q    Type
REMARK                         _______ _______ _______ _____ _____    ______ ____
ROOT
ATOM      1  O   HOH     1      25.321  74.406   8.428  0.00  0.00    +0.000 OA
ENDROOT
TORSDOF 0
REMARK  Name = ../refined-set-2016/2f7p/2f7p_pocket.pdb
REMARK  169 active torsions:
REMARK  status: ('A' for Active; 'I' for Inactive)
REMARK    1  A    between atoms: _1  and  _3
REMARK    2  A    between atoms: _14  and  _17
REMARK    3  A    between atoms: _17  and  _18
REMARK    4  A    between atoms: _25  and  _26
REMARK    5  A    between atoms: _33  and  _34
REMARK    6  A    between atoms: _39  and  _41
REMARK    7  A    between atoms: _41  and  _42
REMARK    8  A    between atoms: _44  and  _46
REMARK    9  A    between atoms: _46  and  _47
REMARK   10  A    between atoms: _46  and  _49
REMARK   11  A    between atoms: _49  and  _50
REMARK   12  A    between atoms: _60  and  _62
REMARK   13  A    between atoms: _62  and  _63
REMARK   14  A    between atoms: _62  and  _65
REMARK   15  A    between atoms: _65  and  _66
REMARK   16  A    between atoms: _69  and  _71
REMARK   17  A    between atoms: _71  and  _72
REMARK   18  A    between atoms: _71  and  _74
REMARK   19  A    between atoms: _74  and  _75
REMARK   20  A    between atoms: _80  and  _81
REMARK   21  A    between atoms: _83  and  _85
REMARK   22  A    between atoms: _85  and  _86
REMARK   23  A    between atoms: _85  and  _88
REMARK   24  A    between atoms: _88  and  _89
REMARK   25  A    between atoms: _89  and  _90
REMARK   26  A    between atoms: _93  and  _95
REMARK   27  A    between atoms: _95  and  _96
REMARK   28  A    between atoms: _95  and  _98
REMARK   29  A    between atoms: _98  and  _99
REMARK   30  A    between atoms: _99  and  _100
REMARK   31  A    between atoms: _102  and  _104
REMARK   32  A    between atoms: _104  and  _105
REMARK   33  A    between atoms: _104  and  _107
REMARK   34  A    between atoms: _107  and  _108
REMARK   35  A    between atoms: _111  and  _113
REMARK   36  A    between atoms: _113  and  _114
REMARK   37  A    between atoms: _113  and  _116
REMARK   38  A    between atoms: _116  and  _117
REMARK   39  A    between atoms: _117  and  _119
REMARK   40  A    between atoms: _119  and  ZN_456
REMARK   41  A    between atoms: _121  and  _122
REMARK   42  A    between atoms: _127  and  _129
REMARK   43  A    between atoms: _129  and  _130
REMARK   44  A    between atoms: _129  and  _132
REMARK   45  A    between atoms: _132  and  _133
REMARK   46  A    between atoms: _139  and  _141
REMARK   47  A    between atoms: _141  and  _142
REMARK   48  A    between atoms: _141  and  _144
REMARK   49  A    between atoms: _144  and  _145
REMARK   50  A    between atoms: _145  and  _146
REMARK   51  A    between atoms: _151  and  _153
REMARK   52  A    between atoms: _153  and  _154
REMARK   53  A    between atoms: _153  and  _156
REMARK   54  A    between atoms: _156  and  _157
REMARK   55  A    between atoms: _157  and  _158
REMARK   56  A    between atoms: _158  and  _159
REMARK   57  A    between atoms: _168  and  _170
REMARK   58  A    between atoms: _170  and  _171
REMARK   59  A    between atoms: _170  and  _173
REMARK   60  A    between atoms: _173  and  _174
REMARK   61  A    between atoms: _179  and  _180
REMARK   62  A    between atoms: _182  and  _184
REMARK   63  A    between atoms: _184  and  _185
REMARK   64  A    between atoms: _184  and  _187
REMARK   65  A    between atoms: _187  and  _188
REMARK   66  A    between atoms: _190  and  _192
REMARK   67  A    between atoms: _192  and  _193
REMARK   68  A    between atoms: _192  and  _195
REMARK   69  A    between atoms: _195  and  _196
REMARK   70  A    between atoms: _201  and  _202
REMARK   71  A    between atoms: _204  and  _206
REMARK   72  A    between atoms: _206  and  _207
REMARK   73  A    between atoms: _206  and  _209
REMARK   74  A    between atoms: _209  and  _210
REMARK   75  A    between atoms: _213  and  _215
REMARK   76  A    between atoms: _215  and  _216
REMARK   77  A    between atoms: _215  and  _218
REMARK   78  A    between atoms: _218  and  _219
REMARK   79  A    between atoms: _222  and  _224
REMARK   80  A    between atoms: _224  and  _225
REMARK   81  A    between atoms: _224  and  _227
REMARK   82  A    between atoms: _227  and  _228
REMARK   83  A    between atoms: _233  and  _235
REMARK   84  A    between atoms: _235  and  _236
REMARK   85  A    between atoms: _235  and  _238
REMARK   86  A    between atoms: _238  and  _239
REMARK   87  A    between atoms: _239  and  _240
REMARK   88  A    between atoms: _240  and  _241
REMARK   89  A    between atoms: _250  and  _252
REMARK   90  A    between atoms: _252  and  _253
REMARK   91  A    between atoms: _255  and  _257
REMARK   92  A    between atoms: _257  and  _258
REMARK   93  A    between atoms: _257  and  _260
REMARK   94  A    between atoms: _260  and  _261
REMARK   95  A    between atoms: _264  and  _266
REMARK   96  A    between atoms: _266  and  _267
REMARK   97  A    between atoms: _266  and  _269
REMARK   98  A    between atoms: _269  and  _270
REMARK   99  A    between atoms: _273  and  _275
REMARK  100  A    between atoms: _275  and  _276
REMARK  101  A    between atoms: _275  and  _278
REMARK  102  A    between atoms: _278  and  _279
REMARK  103  A    between atoms: _285  and  _287
REMARK  104  A    between atoms: _287  and  _288
REMARK  105  A    between atoms: _287  and  _290
REMARK  106  A    between atoms: _290  and  _291
REMARK  107  A    between atoms: _291  and  _292
REMARK  108  A    between atoms: _292  and  _293
REMARK  109  A    between atoms: _302  and  _304
REMARK  110  A    between atoms: _304  and  _305
REMARK  111  A    between atoms: _304  and  _307
REMARK  112  A    between atoms: _307  and  _308
REMARK  113  A    between atoms: _311  and  _313
REMARK  114  A    between atoms: _313  and  _314
REMARK  115  A    between atoms: _313  and  _316
REMARK  116  A    between atoms: _316  and  _317
REMARK  117  A    between atoms: _327  and  _329
REMARK  118  A    between atoms: _329  and  _330
REMARK  119  A    between atoms: _329  and  _332
REMARK  120  A    between atoms: _332  and  _333
REMARK  121  A    between atoms: _338  and  _340
REMARK  122  A    between atoms: _340  and  _341
REMARK  123  A    between atoms: _340  and  _343
REMARK  124  A    between atoms: _343  and  _344
REMARK  125  A    between atoms: _348  and  ZN_456
REMARK  126  A    between atoms: _349  and  _351
REMARK  127  A    between atoms: _351  and  _352
REMARK  128  A    between atoms: _351  and  _354
REMARK  129  A    between atoms: _354  and  _355
REMARK  130  A    between atoms: _358  and  _360
REMARK  131  A    between atoms: _360  and  _361
REMARK  132  A    between atoms: _363  and  _365
REMARK  133  A    between atoms: _365  and  _366
REMARK  134  A    between atoms: _365  and  _368
REMARK  135  A    between atoms: _368  and  _369
REMARK  136  A    between atoms: _372  and  _374
REMARK  137  A    between atoms: _374  and  _375
REMARK  138  A    between atoms: _374  and  _377
REMARK  139  A    between atoms: _377  and  _378
REMARK  140  A    between atoms: _381  and  _383
REMARK  141  A    between atoms: _383  and  _384
REMARK  142  A    between atoms: _387  and  _389
REMARK  143  A    between atoms: _389  and  _390
REMARK  144  A    between atoms: _389  and  _392
REMARK  145  A    between atoms: _392  and  _393
REMARK  146  A    between atoms: _398  and  _399
REMARK  147  A    between atoms: _401  and  _403
REMARK  148  A    between atoms: _403  and  _404
REMARK  149  A    between atoms: _403  and  _406
REMARK  150  A    between atoms: _406  and  _407
REMARK  151  A    between atoms: _410  and  _412
REMARK  152  A    between atoms: _412  and  _413
REMARK  153  A    between atoms: _412  and  _415
REMARK  154  A    between atoms: _415  and  _416
REMARK  155  A    between atoms: _416  and  _417
REMARK  156  A    between atoms: _420  and  _422
REMARK  157  A    between atoms: _422  and  _423
REMARK  158  A    between atoms: _422  and  _425
REMARK  159  A    between atoms: _425  and  _426
REMARK  160  A    between atoms: _426  and  _427
REMARK  161  A    between atoms: _427  and  _428
REMARK  162  A    between atoms: _437  and  _439
REMARK  163  A    between atoms: _439  and  _440
REMARK  164  A    between atoms: _442  and  _444
REMARK  165  A    between atoms: _444  and  _445
REMARK  166  A    between atoms: _444  and  _447
REMARK  167  A    between atoms: _447  and  _448
REMARK  168  A    between atoms: _451  and  _453
REMARK  169  A    between atoms: _453  and  _454
REMARK                            x       y       z     vdW  Elec       q    Type
REMARK                         _______ _______ _______ _____ _____    ______ ____
ROOT
ATOM      1  O   HOH     1      26.024  72.978   5.627  0.00  0.00    +0.000 OA
ENDROOT
TORSDOF 0
REMARK  Name = ../refined-set-2016/2f7p/2f7p_pocket.pdb
REMARK  169 active torsions:
REMARK  status: ('A' for Active; 'I' for Inactive)
REMARK    1  A    between atoms: _1  and  _3
REMARK    2  A    between atoms: _14  and  _17
REMARK    3  A    between atoms: _17  and  _18
REMARK    4  A    between atoms: _25  and  _26
REMARK    5  A    between atoms: _33  and  _34
REMARK    6  A    between atoms: _39  and  _41
REMARK    7  A    between atoms: _41  and  _42
REMARK    8  A    between atoms: _44  and  _46
REMARK    9  A    between atoms: _46  and  _47
REMARK   10  A    between atoms: _46  and  _49
REMARK   11  A    between atoms: _49  and  _50
REMARK   12  A    between atoms: _60  and  _62
REMARK   13  A    between atoms: _62  and  _63
REMARK   14  A    between atoms: _62  and  _65
REMARK   15  A    between atoms: _65  and  _66
REMARK   16  A    between atoms: _69  and  _71
REMARK   17  A    between atoms: _71  and  _72
REMARK   18  A    between atoms: _71  and  _74
REMARK   19  A    between atoms: _74  and  _75
REMARK   20  A    between atoms: _80  and  _81
REMARK   21  A    between atoms: _83  and  _85
REMARK   22  A    between atoms: _85  and  _86
REMARK   23  A    between atoms: _85  and  _88
REMARK   24  A    between atoms: _88  and  _89
REMARK   25  A    between atoms: _89  and  _90
REMARK   26  A    between atoms: _93  and  _95
REMARK   27  A    between atoms: _95  and  _96
REMARK   28  A    between atoms: _95  and  _98
REMARK   29  A    between atoms: _98  and  _99
REMARK   30  A    between atoms: _99  and  _100
REMARK   31  A    between atoms: _102  and  _104
REMARK   32  A    between atoms: _104  and  _105
REMARK   33  A    between atoms: _104  and  _107
REMARK   34  A    between atoms: _107  and  _108
REMARK   35  A    between atoms: _111  and  _113
REMARK   36  A    between atoms: _113  and  _114
REMARK   37  A    between atoms: _113  and  _116
REMARK   38  A    between atoms: _116  and  _117
REMARK   39  A    between atoms: _117  and  _119
REMARK   40  A    between atoms: _119  and  ZN_456
REMARK   41  A    between atoms: _121  and  _122
REMARK   42  A    between atoms: _127  and  _129
REMARK   43  A    between atoms: _129  and  _130
REMARK   44  A    between atoms: _129  and  _132
REMARK   45  A    between atoms: _132  and  _133
REMARK   46  A    between atoms: _139  and  _141
REMARK   47  A    between atoms: _141  and  _142
REMARK   48  A    between atoms: _141  and  _144
REMARK   49  A    between atoms: _144  and  _145
REMARK   50  A    between atoms: _145  and  _146
REMARK   51  A    between atoms: _151  and  _153
REMARK   52  A    between atoms: _153  and  _154
REMARK   53  A    between atoms: _153  and  _156
REMARK   54  A    between atoms: _156  and  _157
REMARK   55  A    between atoms: _157  and  _158
REMARK   56  A    between atoms: _158  and  _159
REMARK   57  A    between atoms: _168  and  _170
REMARK   58  A    between atoms: _170  and  _171
REMARK   59  A    between atoms: _170  and  _173
REMARK   60  A    between atoms: _173  and  _174
REMARK   61  A    between atoms: _179  and  _180
REMARK   62  A    between atoms: _182  and  _184
REMARK   63  A    between atoms: _184  and  _185
REMARK   64  A    between atoms: _184  and  _187
REMARK   65  A    between atoms: _187  and  _188
REMARK   66  A    between atoms: _190  and  _192
REMARK   67  A    between atoms: _192  and  _193
REMARK   68  A    between atoms: _192  and  _195
REMARK   69  A    between atoms: _195  and  _196
REMARK   70  A    between atoms: _201  and  _202
REMARK   71  A    between atoms: _204  and  _206
REMARK   72  A    between atoms: _206  and  _207
REMARK   73  A    between atoms: _206  and  _209
REMARK   74  A    between atoms: _209  and  _210
REMARK   75  A    between atoms: _213  and  _215
REMARK   76  A    between atoms: _215  and  _216
REMARK   77  A    between atoms: _215  and  _218
REMARK   78  A    between atoms: _218  and  _219
REMARK   79  A    between atoms: _222  and  _224
REMARK   80  A    between atoms: _224  and  _225
REMARK   81  A    between atoms: _224  and  _227
REMARK   82  A    between atoms: _227  and  _228
REMARK   83  A    between atoms: _233  and  _235
REMARK   84  A    between atoms: _235  and  _236
REMARK   85  A    between atoms: _235  and  _238
REMARK   86  A    between atoms: _238  and  _239
REMARK   87  A    between atoms: _239  and  _240
REMARK   88  A    between atoms: _240  and  _241
REMARK   89  A    between atoms: _250  and  _252
REMARK   90  A    between atoms: _252  and  _253
REMARK   91  A    between atoms: _255  and  _257
REMARK   92  A    between atoms: _257  and  _258
REMARK   93  A    between atoms: _257  and  _260
REMARK   94  A    between atoms: _260  and  _261
REMARK   95  A    between atoms: _264  and  _266
REMARK   96  A    between atoms: _266  and  _267
REMARK   97  A    between atoms: _266  and  _269
REMARK   98  A    between atoms: _269  and  _270
REMARK   99  A    between atoms: _273  and  _275
REMARK  100  A    between atoms: _275  and  _276
REMARK  101  A    between atoms: _275  and  _278
REMARK  102  A    between atoms: _278  and  _279
REMARK  103  A    between atoms: _285  and  _287
REMARK  104  A    between atoms: _287  and  _288
REMARK  105  A    between atoms: _287  and  _290
REMARK  106  A    between atoms: _290  and  _291
REMARK  107  A    between atoms: _291  and  _292
REMARK  108  A    between atoms: _292  and  _293
REMARK  109  A    between atoms: _302  and  _304
REMARK  110  A    between atoms: _304  and  _305
REMARK  111  A    between atoms: _304  and  _307
REMARK  112  A    between atoms: _307  and  _308
REMARK  113  A    between atoms: _311  and  _313
REMARK  114  A    between atoms: _313  and  _314
REMARK  115  A    between atoms: _313  and  _316
REMARK  116  A    between atoms: _316  and  _317
REMARK  117  A    between atoms: _327  and  _329
REMARK  118  A    between atoms: _329  and  _330
REMARK  119  A    between atoms: _329  and  _332
REMARK  120  A    between atoms: _332  and  _333
REMARK  121  A    between atoms: _338  and  _340
REMARK  122  A    between atoms: _340  and  _341
REMARK  123  A    between atoms: _340  and  _343
REMARK  124  A    between atoms: _343  and  _344
REMARK  125  A    between atoms: _348  and  ZN_456
REMARK  126  A    between atoms: _349  and  _351
REMARK  127  A    between atoms: _351  and  _352
REMARK  128  A    between atoms: _351  and  _354
REMARK  129  A    between atoms: _354  and  _355
REMARK  130  A    between atoms: _358  and  _360
REMARK  131  A    between atoms: _360  and  _361
REMARK  132  A    between atoms: _363  and  _365
REMARK  133  A    between atoms: _365  and  _366
REMARK  134  A    between atoms: _365  and  _368
REMARK  135  A    between atoms: _368  and  _369
REMARK  136  A    between atoms: _372  and  _374
REMARK  137  A    between atoms: _374  and  _375
REMARK  138  A    between atoms: _374  and  _377
REMARK  139  A    between atoms: _377  and  _378
REMARK  140  A    between atoms: _381  and  _383
REMARK  141  A    between atoms: _383  and  _384
REMARK  142  A    between atoms: _387  and  _389
REMARK  143  A    between atoms: _389  and  _390
REMARK  144  A    between atoms: _389  and  _392
REMARK  145  A    between atoms: _392  and  _393
REMARK  146  A    between atoms: _398  and  _399
REMARK  147  A    between atoms: _401  and  _403
REMARK  148  A    between atoms: _403  and  _404
REMARK  149  A    between atoms: _403  and  _406
REMARK  150  A    between atoms: _406  and  _407
REMARK  151  A    between atoms: _410  and  _412
REMARK  152  A    between atoms: _412  and  _413
REMARK  153  A    between atoms: _412  and  _415
REMARK  154  A    between atoms: _415  and  _416
REMARK  155  A    between atoms: _416  and  _417
REMARK  156  A    between atoms: _420  and  _422
REMARK  157  A    between atoms: _422  and  _423
REMARK  158  A    between atoms: _422  and  _425
REMARK  159  A    between atoms: _425  and  _426
REMARK  160  A    between atoms: _426  and  _427
REMARK  161  A    between atoms: _427  and  _428
REMARK  162  A    between atoms: _437  and  _439
REMARK  163  A    between atoms: _439  and  _440
REMARK  164  A    between atoms: _442  and  _444
REMARK  165  A    between atoms: _444  and  _445
REMARK  166  A    between atoms: _444  and  _447
REMARK  167  A    between atoms: _447  and  _448
REMARK  168  A    between atoms: _451  and  _453
REMARK  169  A    between atoms: _453  and  _454
REMARK                            x       y       z     vdW  Elec       q    Type
REMARK                         _______ _______ _______ _____ _____    ______ ____
ROOT
ATOM      1  O   HOH     1      33.111  62.833  -0.014  0.00  0.00    +0.000 OA
ENDROOT
TORSDOF 0
REMARK  Name = ../refined-set-2016/2f7p/2f7p_pocket.pdb
REMARK  169 active torsions:
REMARK  status: ('A' for Active; 'I' for Inactive)
REMARK    1  A    between atoms: _1  and  _3
REMARK    2  A    between atoms: _14  and  _17
REMARK    3  A    between atoms: _17  and  _18
REMARK    4  A    between atoms: _25  and  _26
REMARK    5  A    between atoms: _33  and  _34
REMARK    6  A    between atoms: _39  and  _41
REMARK    7  A    between atoms: _41  and  _42
REMARK    8  A    between atoms: _44  and  _46
REMARK    9  A    between atoms: _46  and  _47
REMARK   10  A    between atoms: _46  and  _49
REMARK   11  A    between atoms: _49  and  _50
REMARK   12  A    between atoms: _60  and  _62
REMARK   13  A    between atoms: _62  and  _63
REMARK   14  A    between atoms: _62  and  _65
REMARK   15  A    between atoms: _65  and  _66
REMARK   16  A    between atoms: _69  and  _71
REMARK   17  A    between atoms: _71  and  _72
REMARK   18  A    between atoms: _71  and  _74
REMARK   19  A    between atoms: _74  and  _75
REMARK   20  A    between atoms: _80  and  _81
REMARK   21  A    between atoms: _83  and  _85
REMARK   22  A    between atoms: _85  and  _86
REMARK   23  A    between atoms: _85  and  _88
REMARK   24  A    between atoms: _88  and  _89
REMARK   25  A    between atoms: _89  and  _90
REMARK   26  A    between atoms: _93  and  _95
REMARK   27  A    between atoms: _95  and  _96
REMARK   28  A    between atoms: _95  and  _98
REMARK   29  A    between atoms: _98  and  _99
REMARK   30  A    between atoms: _99  and  _100
REMARK   31  A    between atoms: _102  and  _104
REMARK   32  A    between atoms: _104  and  _105
REMARK   33  A    between atoms: _104  and  _107
REMARK   34  A    between atoms: _107  and  _108
REMARK   35  A    between atoms: _111  and  _113
REMARK   36  A    between atoms: _113  and  _114
REMARK   37  A    between atoms: _113  and  _116
REMARK   38  A    between atoms: _116  and  _117
REMARK   39  A    between atoms: _117  and  _119
REMARK   40  A    between atoms: _119  and  ZN_456
REMARK   41  A    between atoms: _121  and  _122
REMARK   42  A    between atoms: _127  and  _129
REMARK   43  A    between atoms: _129  and  _130
REMARK   44  A    between atoms: _129  and  _132
REMARK   45  A    between atoms: _132  and  _133
REMARK   46  A    between atoms: _139  and  _141
REMARK   47  A    between atoms: _141  and  _142
REMARK   48  A    between atoms: _141  and  _144
REMARK   49  A    between atoms: _144  and  _145
REMARK   50  A    between atoms: _145  and  _146
REMARK   51  A    between atoms: _151  and  _153
REMARK   52  A    between atoms: _153  and  _154
REMARK   53  A    between atoms: _153  and  _156
REMARK   54  A    between atoms: _156  and  _157
REMARK   55  A    between atoms: _157  and  _158
REMARK   56  A    between atoms: _158  and  _159
REMARK   57  A    between atoms: _168  and  _170
REMARK   58  A    between atoms: _170  and  _171
REMARK   59  A    between atoms: _170  and  _173
REMARK   60  A    between atoms: _173  and  _174
REMARK   61  A    between atoms: _179  and  _180
REMARK   62  A    between atoms: _182  and  _184
REMARK   63  A    between atoms: _184  and  _185
REMARK   64  A    between atoms: _184  and  _187
REMARK   65  A    between atoms: _187  and  _188
REMARK   66  A    between atoms: _190  and  _192
REMARK   67  A    between atoms: _192  and  _193
REMARK   68  A    between atoms: _192  and  _195
REMARK   69  A    between atoms: _195  and  _196
REMARK   70  A    between atoms: _201  and  _202
REMARK   71  A    between atoms: _204  and  _206
REMARK   72  A    between atoms: _206  and  _207
REMARK   73  A    between atoms: _206  and  _209
REMARK   74  A    between atoms: _209  and  _210
REMARK   75  A    between atoms: _213  and  _215
REMARK   76  A    between atoms: _215  and  _216
REMARK   77  A    between atoms: _215  and  _218
REMARK   78  A    between atoms: _218  and  _219
REMARK   79  A    between atoms: _222  and  _224
REMARK   80  A    between atoms: _224  and  _225
REMARK   81  A    between atoms: _224  and  _227
REMARK   82  A    between atoms: _227  and  _228
REMARK   83  A    between atoms: _233  and  _235
REMARK   84  A    between atoms: _235  and  _236
REMARK   85  A    between atoms: _235  and  _238
REMARK   86  A    between atoms: _238  and  _239
REMARK   87  A    between atoms: _239  and  _240
REMARK   88  A    between atoms: _240  and  _241
REMARK   89  A    between atoms: _250  and  _252
REMARK   90  A    between atoms: _252  and  _253
REMARK   91  A    between atoms: _255  and  _257
REMARK   92  A    between atoms: _257  and  _258
REMARK   93  A    between atoms: _257  and  _260
REMARK   94  A    between atoms: _260  and  _261
REMARK   95  A    between atoms: _264  and  _266
REMARK   96  A    between atoms: _266  and  _267
REMARK   97  A    between atoms: _266  and  _269
REMARK   98  A    between atoms: _269  and  _270
REMARK   99  A    between atoms: _273  and  _275
REMARK  100  A    between atoms: _275  and  _276
REMARK  101  A    between atoms: _275  and  _278
REMARK  102  A    between atoms: _278  and  _279
REMARK  103  A    between atoms: _285  and  _287
REMARK  104  A    between atoms: _287  and  _288
REMARK  105  A    between atoms: _287  and  _290
REMARK  106  A    between atoms: _290  and  _291
REMARK  107  A    between atoms: _291  and  _292
REMARK  108  A    between atoms: _292  and  _293
REMARK  109  A    between atoms: _302  and  _304
REMARK  110  A    between atoms: _304  and  _305
REMARK  111  A    between atoms: _304  and  _307
REMARK  112  A    between atoms: _307  and  _308
REMARK  113  A    between atoms: _311  and  _313
REMARK  114  A    between atoms: _313  and  _314
REMARK  115  A    between atoms: _313  and  _316
REMARK  116  A    between atoms: _316  and  _317
REMARK  117  A    between atoms: _327  and  _329
REMARK  118  A    between atoms: _329  and  _330
REMARK  119  A    between atoms: _329  and  _332
REMARK  120  A    between atoms: _332  and  _333
REMARK  121  A    between atoms: _338  and  _340
REMARK  122  A    between atoms: _340  and  _341
REMARK  123  A    between atoms: _340  and  _343
REMARK  124  A    between atoms: _343  and  _344
REMARK  125  A    between atoms: _348  and  ZN_456
REMARK  126  A    between atoms: _349  and  _351
REMARK  127  A    between atoms: _351  and  _352
REMARK  128  A    between atoms: _351  and  _354
REMARK  129  A    between atoms: _354  and  _355
REMARK  130  A    between atoms: _358  and  _360
REMARK  131  A    between atoms: _360  and  _361
REMARK  132  A    between atoms: _363  and  _365
REMARK  133  A    between atoms: _365  and  _366
REMARK  134  A    between atoms: _365  and  _368
REMARK  135  A    between atoms: _368  and  _369
REMARK  136  A    between atoms: _372  and  _374
REMARK  137  A    between atoms: _374  and  _375
REMARK  138  A    between atoms: _374  and  _377
REMARK  139  A    between atoms: _377  and  _378
REMARK  140  A    between atoms: _381  and  _383
REMARK  141  A    between atoms: _383  and  _384
REMARK  142  A    between atoms: _387  and  _389
REMARK  143  A    between atoms: _389  and  _390
REMARK  144  A    between atoms: _389  and  _392
REMARK  145  A    between atoms: _392  and  _393
REMARK  146  A    between atoms: _398  and  _399
REMARK  147  A    between atoms: _401  and  _403
REMARK  148  A    between atoms: _403  and  _404
REMARK  149  A    between atoms: _403  and  _406
REMARK  150  A    between atoms: _406  and  _407
REMARK  151  A    between atoms: _410  and  _412
REMARK  152  A    between atoms: _412  and  _413
REMARK  153  A    between atoms: _412  and  _415
REMARK  154  A    between atoms: _415  and  _416
REMARK  155  A    between atoms: _416  and  _417
REMARK  156  A    between atoms: _420  and  _422
REMARK  157  A    between atoms: _422  and  _423
REMARK  158  A    between atoms: _422  and  _425
REMARK  159  A    between atoms: _425  and  _426
REMARK  160  A    between atoms: _426  and  _427
REMARK  161  A    between atoms: _427  and  _428
REMARK  162  A    between atoms: _437  and  _439
REMARK  163  A    between atoms: _439  and  _440
REMARK  164  A    between atoms: _442  and  _444
REMARK  165  A    between atoms: _444  and  _445
REMARK  166  A    between atoms: _444  and  _447
REMARK  167  A    between atoms: _447  and  _448
REMARK  168  A    between atoms: _451  and  _453
REMARK  169  A    between atoms: _453  and  _454
REMARK                            x       y       z     vdW  Elec       q    Type
REMARK                         _______ _______ _______ _____ _____    ______ ____
ROOT
ATOM      1  O   HOH     1      26.486  67.025  19.648  0.00  0.00    +0.000 OA
ENDROOT
TORSDOF 0
REMARK  Name = ../refined-set-2016/2f7p/2f7p_pocket.pdb
REMARK  169 active torsions:
REMARK  status: ('A' for Active; 'I' for Inactive)
REMARK    1  A    between atoms: _1  and  _3
REMARK    2  A    between atoms: _14  and  _17
REMARK    3  A    between atoms: _17  and  _18
REMARK    4  A    between atoms: _25  and  _26
REMARK    5  A    between atoms: _33  and  _34
REMARK    6  A    between atoms: _39  and  _41
REMARK    7  A    between atoms: _41  and  _42
REMARK    8  A    between atoms: _44  and  _46
REMARK    9  A    between atoms: _46  and  _47
REMARK   10  A    between atoms: _46  and  _49
REMARK   11  A    between atoms: _49  and  _50
REMARK   12  A    between atoms: _60  and  _62
REMARK   13  A    between atoms: _62  and  _63
REMARK   14  A    between atoms: _62  and  _65
REMARK   15  A    between atoms: _65  and  _66
REMARK   16  A    between atoms: _69  and  _71
REMARK   17  A    between atoms: _71  and  _72
REMARK   18  A    between atoms: _71  and  _74
REMARK   19  A    between atoms: _74  and  _75
REMARK   20  A    between atoms: _80  and  _81
REMARK   21  A    between atoms: _83  and  _85
REMARK   22  A    between atoms: _85  and  _86
REMARK   23  A    between atoms: _85  and  _88
REMARK   24  A    between atoms: _88  and  _89
REMARK   25  A    between atoms: _89  and  _90
REMARK   26  A    between atoms: _93  and  _95
REMARK   27  A    between atoms: _95  and  _96
REMARK   28  A    between atoms: _95  and  _98
REMARK   29  A    between atoms: _98  and  _99
REMARK   30  A    between atoms: _99  and  _100
REMARK   31  A    between atoms: _102  and  _104
REMARK   32  A    between atoms: _104  and  _105
REMARK   33  A    between atoms: _104  and  _107
REMARK   34  A    between atoms: _107  and  _108
REMARK   35  A    between atoms: _111  and  _113
REMARK   36  A    between atoms: _113  and  _114
REMARK   37  A    between atoms: _113  and  _116
REMARK   38  A    between atoms: _116  and  _117
REMARK   39  A    between atoms: _117  and  _119
REMARK   40  A    between atoms: _119  and  ZN_456
REMARK   41  A    between atoms: _121  and  _122
REMARK   42  A    between atoms: _127  and  _129
REMARK   43  A    between atoms: _129  and  _130
REMARK   44  A    between atoms: _129  and  _132
REMARK   45  A    between atoms: _132  and  _133
REMARK   46  A    between atoms: _139  and  _141
REMARK   47  A    between atoms: _141  and  _142
REMARK   48  A    between atoms: _141  and  _144
REMARK   49  A    between atoms: _144  and  _145
REMARK   50  A    between atoms: _145  and  _146
REMARK   51  A    between atoms: _151  and  _153
REMARK   52  A    between atoms: _153  and  _154
REMARK   53  A    between atoms: _153  and  _156
REMARK   54  A    between atoms: _156  and  _157
REMARK   55  A    between atoms: _157  and  _158
REMARK   56  A    between atoms: _158  and  _159
REMARK   57  A    between atoms: _168  and  _170
REMARK   58  A    between atoms: _170  and  _171
REMARK   59  A    between atoms: _170  and  _173
REMARK   60  A    between atoms: _173  and  _174
REMARK   61  A    between atoms: _179  and  _180
REMARK   62  A    between atoms: _182  and  _184
REMARK   63  A    between atoms: _184  and  _185
REMARK   64  A    between atoms: _184  and  _187
REMARK   65  A    between atoms: _187  and  _188
REMARK   66  A    between atoms: _190  and  _192
REMARK   67  A    between atoms: _192  and  _193
REMARK   68  A    between atoms: _192  and  _195
REMARK   69  A    between atoms: _195  and  _196
REMARK   70  A    between atoms: _201  and  _202
REMARK   71  A    between atoms: _204  and  _206
REMARK   72  A    between atoms: _206  and  _207
REMARK   73  A    between atoms: _206  and  _209
REMARK   74  A    between atoms: _209  and  _210
REMARK   75  A    between atoms: _213  and  _215
REMARK   76  A    between atoms: _215  and  _216
REMARK   77  A    between atoms: _215  and  _218
REMARK   78  A    between atoms: _218  and  _219
REMARK   79  A    between atoms: _222  and  _224
REMARK   80  A    between atoms: _224  and  _225
REMARK   81  A    between atoms: _224  and  _227
REMARK   82  A    between atoms: _227  and  _228
REMARK   83  A    between atoms: _233  and  _235
REMARK   84  A    between atoms: _235  and  _236
REMARK   85  A    between atoms: _235  and  _238
REMARK   86  A    between atoms: _238  and  _239
REMARK   87  A    between atoms: _239  and  _240
REMARK   88  A    between atoms: _240  and  _241
REMARK   89  A    between atoms: _250  and  _252
REMARK   90  A    between atoms: _252  and  _253
REMARK   91  A    between atoms: _255  and  _257
REMARK   92  A    between atoms: _257  and  _258
REMARK   93  A    between atoms: _257  and  _260
REMARK   94  A    between atoms: _260  and  _261
REMARK   95  A    between atoms: _264  and  _266
REMARK   96  A    between atoms: _266  and  _267
REMARK   97  A    between atoms: _266  and  _269
REMARK   98  A    between atoms: _269  and  _270
REMARK   99  A    between atoms: _273  and  _275
REMARK  100  A    between atoms: _275  and  _276
REMARK  101  A    between atoms: _275  and  _278
REMARK  102  A    between atoms: _278  and  _279
REMARK  103  A    between atoms: _285  and  _287
REMARK  104  A    between atoms: _287  and  _288
REMARK  105  A    between atoms: _287  and  _290
REMARK  106  A    between atoms: _290  and  _291
REMARK  107  A    between atoms: _291  and  _292
REMARK  108  A    between atoms: _292  and  _293
REMARK  109  A    between atoms: _302  and  _304
REMARK  110  A    between atoms: _304  and  _305
REMARK  111  A    between atoms: _304  and  _307
REMARK  112  A    between atoms: _307  and  _308
REMARK  113  A    between atoms: _311  and  _313
REMARK  114  A    between atoms: _313  and  _314
REMARK  115  A    between atoms: _313  and  _316
REMARK  116  A    between atoms: _316  and  _317
REMARK  117  A    between atoms: _327  and  _329
REMARK  118  A    between atoms: _329  and  _330
REMARK  119  A    between atoms: _329  and  _332
REMARK  120  A    between atoms: _332  and  _333
REMARK  121  A    between atoms: _338  and  _340
REMARK  122  A    between atoms: _340  and  _341
REMARK  123  A    between atoms: _340  and  _343
REMARK  124  A    between atoms: _343  and  _344
REMARK  125  A    between atoms: _348  and  ZN_456
REMARK  126  A    between atoms: _349  and  _351
REMARK  127  A    between atoms: _351  and  _352
REMARK  128  A    between atoms: _351  and  _354
REMARK  129  A    between atoms: _354  and  _355
REMARK  130  A    between atoms: _358  and  _360
REMARK  131  A    between atoms: _360  and  _361
REMARK  132  A    between atoms: _363  and  _365
REMARK  133  A    between atoms: _365  and  _366
REMARK  134  A    between atoms: _365  and  _368
REMARK  135  A    between atoms: _368  and  _369
REMARK  136  A    between atoms: _372  and  _374
REMARK  137  A    between atoms: _374  and  _375
REMARK  138  A    between atoms: _374  and  _377
REMARK  139  A    between atoms: _377  and  _378
REMARK  140  A    between atoms: _381  and  _383
REMARK  141  A    between atoms: _383  and  _384
REMARK  142  A    between atoms: _387  and  _389
REMARK  143  A    between atoms: _389  and  _390
REMARK  144  A    between atoms: _389  and  _392
REMARK  145  A    between atoms: _392  and  _393
REMARK  146  A    between atoms: _398  and  _399
REMARK  147  A    between atoms: _401  and  _403
REMARK  148  A    between atoms: _403  and  _404
REMARK  149  A    between atoms: _403  and  _406
REMARK  150  A    between atoms: _406  and  _407
REMARK  151  A    between atoms: _410  and  _412
REMARK  152  A    between atoms: _412  and  _413
REMARK  153  A    between atoms: _412  and  _415
REMARK  154  A    between atoms: _415  and  _416
REMARK  155  A    between atoms: _416  and  _417
REMARK  156  A    between atoms: _420  and  _422
REMARK  157  A    between atoms: _422  and  _423
REMARK  158  A    between atoms: _422  and  _425
REMARK  159  A    between atoms: _425  and  _426
REMARK  160  A    between atoms: _426  and  _427
REMARK  161  A    between atoms: _427  and  _428
REMARK  162  A    between atoms: _437  and  _439
REMARK  163  A    between atoms: _439  and  _440
REMARK  164  A    between atoms: _442  and  _444
REMARK  165  A    between atoms: _444  and  _445
REMARK  166  A    between atoms: _444  and  _447
REMARK  167  A    between atoms: _447  and  _448
REMARK  168  A    between atoms: _451  and  _453
REMARK  169  A    between atoms: _453  and  _454
REMARK                            x       y       z     vdW  Elec       q    Type
REMARK                         _______ _______ _______ _____ _____    ______ ____
ROOT
ATOM      1  O   HOH     1      28.688  65.293  19.611  0.00  0.00    +0.000 OA
ENDROOT
TORSDOF 0
REMARK  Name = ../refined-set-2016/2f7p/2f7p_pocket.pdb
REMARK  169 active torsions:
REMARK  status: ('A' for Active; 'I' for Inactive)
REMARK    1  A    between atoms: _1  and  _3
REMARK    2  A    between atoms: _14  and  _17
REMARK    3  A    between atoms: _17  and  _18
REMARK    4  A    between atoms: _25  and  _26
REMARK    5  A    between atoms: _33  and  _34
REMARK    6  A    between atoms: _39  and  _41
REMARK    7  A    between atoms: _41  and  _42
REMARK    8  A    between atoms: _44  and  _46
REMARK    9  A    between atoms: _46  and  _47
REMARK   10  A    between atoms: _46  and  _49
REMARK   11  A    between atoms: _49  and  _50
REMARK   12  A    between atoms: _60  and  _62
REMARK   13  A    between atoms: _62  and  _63
REMARK   14  A    between atoms: _62  and  _65
REMARK   15  A    between atoms: _65  and  _66
REMARK   16  A    between atoms: _69  and  _71
REMARK   17  A    between atoms: _71  and  _72
REMARK   18  A    between atoms: _71  and  _74
REMARK   19  A    between atoms: _74  and  _75
REMARK   20  A    between atoms: _80  and  _81
REMARK   21  A    between atoms: _83  and  _85
REMARK   22  A    between atoms: _85  and  _86
REMARK   23  A    between atoms: _85  and  _88
REMARK   24  A    between atoms: _88  and  _89
REMARK   25  A    between atoms: _89  and  _90
REMARK   26  A    between atoms: _93  and  _95
REMARK   27  A    between atoms: _95  and  _96
REMARK   28  A    between atoms: _95  and  _98
REMARK   29  A    between atoms: _98  and  _99
REMARK   30  A    between atoms: _99  and  _100
REMARK   31  A    between atoms: _102  and  _104
REMARK   32  A    between atoms: _104  and  _105
REMARK   33  A    between atoms: _104  and  _107
REMARK   34  A    between atoms: _107  and  _108
REMARK   35  A    between atoms: _111  and  _113
REMARK   36  A    between atoms: _113  and  _114
REMARK   37  A    between atoms: _113  and  _116
REMARK   38  A    between atoms: _116  and  _117
REMARK   39  A    between atoms: _117  and  _119
REMARK   40  A    between atoms: _119  and  ZN_456
REMARK   41  A    between atoms: _121  and  _122
REMARK   42  A    between atoms: _127  and  _129
REMARK   43  A    between atoms: _129  and  _130
REMARK   44  A    between atoms: _129  and  _132
REMARK   45  A    between atoms: _132  and  _133
REMARK   46  A    between atoms: _139  and  _141
REMARK   47  A    between atoms: _141  and  _142
REMARK   48  A    between atoms: _141  and  _144
REMARK   49  A    between atoms: _144  and  _145
REMARK   50  A    between atoms: _145  and  _146
REMARK   51  A    between atoms: _151  and  _153
REMARK   52  A    between atoms: _153  and  _154
REMARK   53  A    between atoms: _153  and  _156
REMARK   54  A    between atoms: _156  and  _157
REMARK   55  A    between atoms: _157  and  _158
REMARK   56  A    between atoms: _158  and  _159
REMARK   57  A    between atoms: _168  and  _170
REMARK   58  A    between atoms: _170  and  _171
REMARK   59  A    between atoms: _170  and  _173
REMARK   60  A    between atoms: _173  and  _174
REMARK   61  A    between atoms: _179  and  _180
REMARK   62  A    between atoms: _182  and  _184
REMARK   63  A    between atoms: _184  and  _185
REMARK   64  A    between atoms: _184  and  _187
REMARK   65  A    between atoms: _187  and  _188
REMARK   66  A    between atoms: _190  and  _192
REMARK   67  A    between atoms: _192  and  _193
REMARK   68  A    between atoms: _192  and  _195
REMARK   69  A    between atoms: _195  and  _196
REMARK   70  A    between atoms: _201  and  _202
REMARK   71  A    between atoms: _204  and  _206
REMARK   72  A    between atoms: _206  and  _207
REMARK   73  A    between atoms: _206  and  _209
REMARK   74  A    between atoms: _209  and  _210
REMARK   75  A    between atoms: _213  and  _215
REMARK   76  A    between atoms: _215  and  _216
REMARK   77  A    between atoms: _215  and  _218
REMARK   78  A    between atoms: _218  and  _219
REMARK   79  A    between atoms: _222  and  _224
REMARK   80  A    between atoms: _224  and  _225
REMARK   81  A    between atoms: _224  and  _227
REMARK   82  A    between atoms: _227  and  _228
REMARK   83  A    between atoms: _233  and  _235
REMARK   84  A    between atoms: _235  and  _236
REMARK   85  A    between atoms: _235  and  _238
REMARK   86  A    between atoms: _238  and  _239
REMARK   87  A    between atoms: _239  and  _240
REMARK   88  A    between atoms: _240  and  _241
REMARK   89  A    between atoms: _250  and  _252
REMARK   90  A    between atoms: _252  and  _253
REMARK   91  A    between atoms: _255  and  _257
REMARK   92  A    between atoms: _257  and  _258
REMARK   93  A    between atoms: _257  and  _260
REMARK   94  A    between atoms: _260  and  _261
REMARK   95  A    between atoms: _264  and  _266
REMARK   96  A    between atoms: _266  and  _267
REMARK   97  A    between atoms: _266  and  _269
REMARK   98  A    between atoms: _269  and  _270
REMARK   99  A    between atoms: _273  and  _275
REMARK  100  A    between atoms: _275  and  _276
REMARK  101  A    between atoms: _275  and  _278
REMARK  102  A    between atoms: _278  and  _279
REMARK  103  A    between atoms: _285  and  _287
REMARK  104  A    between atoms: _287  and  _288
REMARK  105  A    between atoms: _287  and  _290
REMARK  106  A    between atoms: _290  and  _291
REMARK  107  A    between atoms: _291  and  _292
REMARK  108  A    between atoms: _292  and  _293
REMARK  109  A    between atoms: _302  and  _304
REMARK  110  A    between atoms: _304  and  _305
REMARK  111  A    between atoms: _304  and  _307
REMARK  112  A    between atoms: _307  and  _308
REMARK  113  A    between atoms: _311  and  _313
REMARK  114  A    between atoms: _313  and  _314
REMARK  115  A    between atoms: _313  and  _316
REMARK  116  A    between atoms: _316  and  _317
REMARK  117  A    between atoms: _327  and  _329
REMARK  118  A    between atoms: _329  and  _330
REMARK  119  A    between atoms: _329  and  _332
REMARK  120  A    between atoms: _332  and  _333
REMARK  121  A    between atoms: _338  and  _340
REMARK  122  A    between atoms: _340  and  _341
REMARK  123  A    between atoms: _340  and  _343
REMARK  124  A    between atoms: _343  and  _344
REMARK  125  A    between atoms: _348  and  ZN_456
REMARK  126  A    between atoms: _349  and  _351
REMARK  127  A    between atoms: _351  and  _352
REMARK  128  A    between atoms: _351  and  _354
REMARK  129  A    between atoms: _354  and  _355
REMARK  130  A    between atoms: _358  and  _360
REMARK  131  A    between atoms: _360  and  _361
REMARK  132  A    between atoms: _363  and  _365
REMARK  133  A    between atoms: _365  and  _366
REMARK  134  A    between atoms: _365  and  _368
REMARK  135  A    between atoms: _368  and  _369
REMARK  136  A    between atoms: _372  and  _374
REMARK  137  A    between atoms: _374  and  _375
REMARK  138  A    between atoms: _374  and  _377
REMARK  139  A    between atoms: _377  and  _378
REMARK  140  A    between atoms: _381  and  _383
REMARK  141  A    between atoms: _383  and  _384
REMARK  142  A    between atoms: _387  and  _389
REMARK  143  A    between atoms: _389  and  _390
REMARK  144  A    between atoms: _389  and  _392
REMARK  145  A    between atoms: _392  and  _393
REMARK  146  A    between atoms: _398  and  _399
REMARK  147  A    between atoms: _401  and  _403
REMARK  148  A    between atoms: _403  and  _404
REMARK  149  A    between atoms: _403  and  _406
REMARK  150  A    between atoms: _406  and  _407
REMARK  151  A    between atoms: _410  and  _412
REMARK  152  A    between atoms: _412  and  _413
REMARK  153  A    between atoms: _412  and  _415
REMARK  154  A    between atoms: _415  and  _416
REMARK  155  A    between atoms: _416  and  _417
REMARK  156  A    between atoms: _420  and  _422
REMARK  157  A    between atoms: _422  and  _423
REMARK  158  A    between atoms: _422  and  _425
REMARK  159  A    between atoms: _425  and  _426
REMARK  160  A    between atoms: _426  and  _427
REMARK  161  A    between atoms: _427  and  _428
REMARK  162  A    between atoms: _437  and  _439
REMARK  163  A    between atoms: _439  and  _440
REMARK  164  A    between atoms: _442  and  _444
REMARK  165  A    between atoms: _444  and  _445
REMARK  166  A    between atoms: _444  and  _447
REMARK  167  A    between atoms: _447  and  _448
REMARK  168  A    between atoms: _451  and  _453
REMARK  169  A    between atoms: _453  and  _454
REMARK                            x       y       z     vdW  Elec       q    Type
REMARK                         _______ _______ _______ _____ _____    ______ ____
ROOT
ATOM      1  O   HOH     1      37.825  59.079  10.967  0.00  0.00    +0.000 OA
ENDROOT
TORSDOF 0
REMARK  Name = ../refined-set-2016/2f7p/2f7p_pocket.pdb
REMARK  169 active torsions:
REMARK  status: ('A' for Active; 'I' for Inactive)
REMARK    1  A    between atoms: _1  and  _3
REMARK    2  A    between atoms: _14  and  _17
REMARK    3  A    between atoms: _17  and  _18
REMARK    4  A    between atoms: _25  and  _26
REMARK    5  A    between atoms: _33  and  _34
REMARK    6  A    between atoms: _39  and  _41
REMARK    7  A    between atoms: _41  and  _42
REMARK    8  A    between atoms: _44  and  _46
REMARK    9  A    between atoms: _46  and  _47
REMARK   10  A    between atoms: _46  and  _49
REMARK   11  A    between atoms: _49  and  _50
REMARK   12  A    between atoms: _60  and  _62
REMARK   13  A    between atoms: _62  and  _63
REMARK   14  A    between atoms: _62  and  _65
REMARK   15  A    between atoms: _65  and  _66
REMARK   16  A    between atoms: _69  and  _71
REMARK   17  A    between atoms: _71  and  _72
REMARK   18  A    between atoms: _71  and  _74
REMARK   19  A    between atoms: _74  and  _75
REMARK   20  A    between atoms: _80  and  _81
REMARK   21  A    between atoms: _83  and  _85
REMARK   22  A    between atoms: _85  and  _86
REMARK   23  A    between atoms: _85  and  _88
REMARK   24  A    between atoms: _88  and  _89
REMARK   25  A    between atoms: _89  and  _90
REMARK   26  A    between atoms: _93  and  _95
REMARK   27  A    between atoms: _95  and  _96
REMARK   28  A    between atoms: _95  and  _98
REMARK   29  A    between atoms: _98  and  _99
REMARK   30  A    between atoms: _99  and  _100
REMARK   31  A    between atoms: _102  and  _104
REMARK   32  A    between atoms: _104  and  _105
REMARK   33  A    between atoms: _104  and  _107
REMARK   34  A    between atoms: _107  and  _108
REMARK   35  A    between atoms: _111  and  _113
REMARK   36  A    between atoms: _113  and  _114
REMARK   37  A    between atoms: _113  and  _116
REMARK   38  A    between atoms: _116  and  _117
REMARK   39  A    between atoms: _117  and  _119
REMARK   40  A    between atoms: _119  and  ZN_456
REMARK   41  A    between atoms: _121  and  _122
REMARK   42  A    between atoms: _127  and  _129
REMARK   43  A    between atoms: _129  and  _130
REMARK   44  A    between atoms: _129  and  _132
REMARK   45  A    between atoms: _132  and  _133
REMARK   46  A    between atoms: _139  and  _141
REMARK   47  A    between atoms: _141  and  _142
REMARK   48  A    between atoms: _141  and  _144
REMARK   49  A    between atoms: _144  and  _145
REMARK   50  A    between atoms: _145  and  _146
REMARK   51  A    between atoms: _151  and  _153
REMARK   52  A    between atoms: _153  and  _154
REMARK   53  A    between atoms: _153  and  _156
REMARK   54  A    between atoms: _156  and  _157
REMARK   55  A    between atoms: _157  and  _158
REMARK   56  A    between atoms: _158  and  _159
REMARK   57  A    between atoms: _168  and  _170
REMARK   58  A    between atoms: _170  and  _171
REMARK   59  A    between atoms: _170  and  _173
REMARK   60  A    between atoms: _173  and  _174
REMARK   61  A    between atoms: _179  and  _180
REMARK   62  A    between atoms: _182  and  _184
REMARK   63  A    between atoms: _184  and  _185
REMARK   64  A    between atoms: _184  and  _187
REMARK   65  A    between atoms: _187  and  _188
REMARK   66  A    between atoms: _190  and  _192
REMARK   67  A    between atoms: _192  and  _193
REMARK   68  A    between atoms: _192  and  _195
REMARK   69  A    between atoms: _195  and  _196
REMARK   70  A    between atoms: _201  and  _202
REMARK   71  A    between atoms: _204  and  _206
REMARK   72  A    between atoms: _206  and  _207
REMARK   73  A    between atoms: _206  and  _209
REMARK   74  A    between atoms: _209  and  _210
REMARK   75  A    between atoms: _213  and  _215
REMARK   76  A    between atoms: _215  and  _216
REMARK   77  A    between atoms: _215  and  _218
REMARK   78  A    between atoms: _218  and  _219
REMARK   79  A    between atoms: _222  and  _224
REMARK   80  A    between atoms: _224  and  _225
REMARK   81  A    between atoms: _224  and  _227
REMARK   82  A    between atoms: _227  and  _228
REMARK   83  A    between atoms: _233  and  _235
REMARK   84  A    between atoms: _235  and  _236
REMARK   85  A    between atoms: _235  and  _238
REMARK   86  A    between atoms: _238  and  _239
REMARK   87  A    between atoms: _239  and  _240
REMARK   88  A    between atoms: _240  and  _241
REMARK   89  A    between atoms: _250  and  _252
REMARK   90  A    between atoms: _252  and  _253
REMARK   91  A    between atoms: _255  and  _257
REMARK   92  A    between atoms: _257  and  _258
REMARK   93  A    between atoms: _257  and  _260
REMARK   94  A    between atoms: _260  and  _261
REMARK   95  A    between atoms: _264  and  _266
REMARK   96  A    between atoms: _266  and  _267
REMARK   97  A    between atoms: _266  and  _269
REMARK   98  A    between atoms: _269  and  _270
REMARK   99  A    between atoms: _273  and  _275
REMARK  100  A    between atoms: _275  and  _276
REMARK  101  A    between atoms: _275  and  _278
REMARK  102  A    between atoms: _278  and  _279
REMARK  103  A    between atoms: _285  and  _287
REMARK  104  A    between atoms: _287  and  _288
REMARK  105  A    between atoms: _287  and  _290
REMARK  106  A    between atoms: _290  and  _291
REMARK  107  A    between atoms: _291  and  _292
REMARK  108  A    between atoms: _292  and  _293
REMARK  109  A    between atoms: _302  and  _304
REMARK  110  A    between atoms: _304  and  _305
REMARK  111  A    between atoms: _304  and  _307
REMARK  112  A    between atoms: _307  and  _308
REMARK  113  A    between atoms: _311  and  _313
REMARK  114  A    between atoms: _313  and  _314
REMARK  115  A    between atoms: _313  and  _316
REMARK  116  A    between atoms: _316  and  _317
REMARK  117  A    between atoms: _327  and  _329
REMARK  118  A    between atoms: _329  and  _330
REMARK  119  A    between atoms: _329  and  _332
REMARK  120  A    between atoms: _332  and  _333
REMARK  121  A    between atoms: _338  and  _340
REMARK  122  A    between atoms: _340  and  _341
REMARK  123  A    between atoms: _340  and  _343
REMARK  124  A    between atoms: _343  and  _344
REMARK  125  A    between atoms: _348  and  ZN_456
REMARK  126  A    between atoms: _349  and  _351
REMARK  127  A    between atoms: _351  and  _352
REMARK  128  A    between atoms: _351  and  _354
REMARK  129  A    between atoms: _354  and  _355
REMARK  130  A    between atoms: _358  and  _360
REMARK  131  A    between atoms: _360  and  _361
REMARK  132  A    between atoms: _363  and  _365
REMARK  133  A    between atoms: _365  and  _366
REMARK  134  A    between atoms: _365  and  _368
REMARK  135  A    between atoms: _368  and  _369
REMARK  136  A    between atoms: _372  and  _374
REMARK  137  A    between atoms: _374  and  _375
REMARK  138  A    between atoms: _374  and  _377
REMARK  139  A    between atoms: _377  and  _378
REMARK  140  A    between atoms: _381  and  _383
REMARK  141  A    between atoms: _383  and  _384
REMARK  142  A    between atoms: _387  and  _389
REMARK  143  A    between atoms: _389  and  _390
REMARK  144  A    between atoms: _389  and  _392
REMARK  145  A    between atoms: _392  and  _393
REMARK  146  A    between atoms: _398  and  _399
REMARK  147  A    between atoms: _401  and  _403
REMARK  148  A    between atoms: _403  and  _404
REMARK  149  A    between atoms: _403  and  _406
REMARK  150  A    between atoms: _406  and  _407
REMARK  151  A    between atoms: _410  and  _412
REMARK  152  A    between atoms: _412  and  _413
REMARK  153  A    between atoms: _412  and  _415
REMARK  154  A    between atoms: _415  and  _416
REMARK  155  A    between atoms: _416  and  _417
REMARK  156  A    between atoms: _420  and  _422
REMARK  157  A    between atoms: _422  and  _423
REMARK  158  A    between atoms: _422  and  _425
REMARK  159  A    between atoms: _425  and  _426
REMARK  160  A    between atoms: _426  and  _427
REMARK  161  A    between atoms: _427  and  _428
REMARK  162  A    between atoms: _437  and  _439
REMARK  163  A    between atoms: _439  and  _440
REMARK  164  A    between atoms: _442  and  _444
REMARK  165  A    between atoms: _444  and  _445
REMARK  166  A    between atoms: _444  and  _447
REMARK  167  A    between atoms: _447  and  _448
REMARK  168  A    between atoms: _451  and  _453
REMARK  169  A    between atoms: _453  and  _454
REMARK                            x       y       z     vdW  Elec       q    Type
REMARK                         _______ _______ _______ _____ _____    ______ ____
ROOT
ATOM      1  O   HOH     1      38.774  62.490   8.354  0.00  0.00    +0.000 OA
ENDROOT
TORSDOF 0
REMARK  Name = ../refined-set-2016/2f7p/2f7p_pocket.pdb
REMARK  169 active torsions:
REMARK  status: ('A' for Active; 'I' for Inactive)
REMARK    1  A    between atoms: _1  and  _3
REMARK    2  A    between atoms: _14  and  _17
REMARK    3  A    between atoms: _17  and  _18
REMARK    4  A    between atoms: _25  and  _26
REMARK    5  A    between atoms: _33  and  _34
REMARK    6  A    between atoms: _39  and  _41
REMARK    7  A    between atoms: _41  and  _42
REMARK    8  A    between atoms: _44  and  _46
REMARK    9  A    between atoms: _46  and  _47
REMARK   10  A    between atoms: _46  and  _49
REMARK   11  A    between atoms: _49  and  _50
REMARK   12  A    between atoms: _60  and  _62
REMARK   13  A    between atoms: _62  and  _63
REMARK   14  A    between atoms: _62  and  _65
REMARK   15  A    between atoms: _65  and  _66
REMARK   16  A    between atoms: _69  and  _71
REMARK   17  A    between atoms: _71  and  _72
REMARK   18  A    between atoms: _71  and  _74
REMARK   19  A    between atoms: _74  and  _75
REMARK   20  A    between atoms: _80  and  _81
REMARK   21  A    between atoms: _83  and  _85
REMARK   22  A    between atoms: _85  and  _86
REMARK   23  A    between atoms: _85  and  _88
REMARK   24  A    between atoms: _88  and  _89
REMARK   25  A    between atoms: _89  and  _90
REMARK   26  A    between atoms: _93  and  _95
REMARK   27  A    between atoms: _95  and  _96
REMARK   28  A    between atoms: _95  and  _98
REMARK   29  A    between atoms: _98  and  _99
REMARK   30  A    between atoms: _99  and  _100
REMARK   31  A    between atoms: _102  and  _104
REMARK   32  A    between atoms: _104  and  _105
REMARK   33  A    between atoms: _104  and  _107
REMARK   34  A    between atoms: _107  and  _108
REMARK   35  A    between atoms: _111  and  _113
REMARK   36  A    between atoms: _113  and  _114
REMARK   37  A    between atoms: _113  and  _116
REMARK   38  A    between atoms: _116  and  _117
REMARK   39  A    between atoms: _117  and  _119
REMARK   40  A    between atoms: _119  and  ZN_456
REMARK   41  A    between atoms: _121  and  _122
REMARK   42  A    between atoms: _127  and  _129
REMARK   43  A    between atoms: _129  and  _130
REMARK   44  A    between atoms: _129  and  _132
REMARK   45  A    between atoms: _132  and  _133
REMARK   46  A    between atoms: _139  and  _141
REMARK   47  A    between atoms: _141  and  _142
REMARK   48  A    between atoms: _141  and  _144
REMARK   49  A    between atoms: _144  and  _145
REMARK   50  A    between atoms: _145  and  _146
REMARK   51  A    between atoms: _151  and  _153
REMARK   52  A    between atoms: _153  and  _154
REMARK   53  A    between atoms: _153  and  _156
REMARK   54  A    between atoms: _156  and  _157
REMARK   55  A    between atoms: _157  and  _158
REMARK   56  A    between atoms: _158  and  _159
REMARK   57  A    between atoms: _168  and  _170
REMARK   58  A    between atoms: _170  and  _171
REMARK   59  A    between atoms: _170  and  _173
REMARK   60  A    between atoms: _173  and  _174
REMARK   61  A    between atoms: _179  and  _180
REMARK   62  A    between atoms: _182  and  _184
REMARK   63  A    between atoms: _184  and  _185
REMARK   64  A    between atoms: _184  and  _187
REMARK   65  A    between atoms: _187  and  _188
REMARK   66  A    between atoms: _190  and  _192
REMARK   67  A    between atoms: _192  and  _193
REMARK   68  A    between atoms: _192  and  _195
REMARK   69  A    between atoms: _195  and  _196
REMARK   70  A    between atoms: _201  and  _202
REMARK   71  A    between atoms: _204  and  _206
REMARK   72  A    between atoms: _206  and  _207
REMARK   73  A    between atoms: _206  and  _209
REMARK   74  A    between atoms: _209  and  _210
REMARK   75  A    between atoms: _213  and  _215
REMARK   76  A    between atoms: _215  and  _216
REMARK   77  A    between atoms: _215  and  _218
REMARK   78  A    between atoms: _218  and  _219
REMARK   79  A    between atoms: _222  and  _224
REMARK   80  A    between atoms: _224  and  _225
REMARK   81  A    between atoms: _224  and  _227
REMARK   82  A    between atoms: _227  and  _228
REMARK   83  A    between atoms: _233  and  _235
REMARK   84  A    between atoms: _235  and  _236
REMARK   85  A    between atoms: _235  and  _238
REMARK   86  A    between atoms: _238  and  _239
REMARK   87  A    between atoms: _239  and  _240
REMARK   88  A    between atoms: _240  and  _241
REMARK   89  A    between atoms: _250  and  _252
REMARK   90  A    between atoms: _252  and  _253
REMARK   91  A    between atoms: _255  and  _257
REMARK   92  A    between atoms: _257  and  _258
REMARK   93  A    between atoms: _257  and  _260
REMARK   94  A    between atoms: _260  and  _261
REMARK   95  A    between atoms: _264  and  _266
REMARK   96  A    between atoms: _266  and  _267
REMARK   97  A    between atoms: _266  and  _269
REMARK   98  A    between atoms: _269  and  _270
REMARK   99  A    between atoms: _273  and  _275
REMARK  100  A    between atoms: _275  and  _276
REMARK  101  A    between atoms: _275  and  _278
REMARK  102  A    between atoms: _278  and  _279
REMARK  103  A    between atoms: _285  and  _287
REMARK  104  A    between atoms: _287  and  _288
REMARK  105  A    between atoms: _287  and  _290
REMARK  106  A    between atoms: _290  and  _291
REMARK  107  A    between atoms: _291  and  _292
REMARK  108  A    between atoms: _292  and  _293
REMARK  109  A    between atoms: _302  and  _304
REMARK  110  A    between atoms: _304  and  _305
REMARK  111  A    between atoms: _304  and  _307
REMARK  112  A    between atoms: _307  and  _308
REMARK  113  A    between atoms: _311  and  _313
REMARK  114  A    between atoms: _313  and  _314
REMARK  115  A    between atoms: _313  and  _316
REMARK  116  A    between atoms: _316  and  _317
REMARK  117  A    between atoms: _327  and  _329
REMARK  118  A    between atoms: _329  and  _330
REMARK  119  A    between atoms: _329  and  _332
REMARK  120  A    between atoms: _332  and  _333
REMARK  121  A    between atoms: _338  and  _340
REMARK  122  A    between atoms: _340  and  _341
REMARK  123  A    between atoms: _340  and  _343
REMARK  124  A    between atoms: _343  and  _344
REMARK  125  A    between atoms: _348  and  ZN_456
REMARK  126  A    between atoms: _349  and  _351
REMARK  127  A    between atoms: _351  and  _352
REMARK  128  A    between atoms: _351  and  _354
REMARK  129  A    between atoms: _354  and  _355
REMARK  130  A    between atoms: _358  and  _360
REMARK  131  A    between atoms: _360  and  _361
REMARK  132  A    between atoms: _363  and  _365
REMARK  133  A    between atoms: _365  and  _366
REMARK  134  A    between atoms: _365  and  _368
REMARK  135  A    between atoms: _368  and  _369
REMARK  136  A    between atoms: _372  and  _374
REMARK  137  A    between atoms: _374  and  _375
REMARK  138  A    between atoms: _374  and  _377
REMARK  139  A    between atoms: _377  and  _378
REMARK  140  A    between atoms: _381  and  _383
REMARK  141  A    between atoms: _383  and  _384
REMARK  142  A    between atoms: _387  and  _389
REMARK  143  A    between atoms: _389  and  _390
REMARK  144  A    between atoms: _389  and  _392
REMARK  145  A    between atoms: _392  and  _393
REMARK  146  A    between atoms: _398  and  _399
REMARK  147  A    between atoms: _401  and  _403
REMARK  148  A    between atoms: _403  and  _404
REMARK  149  A    between atoms: _403  and  _406
REMARK  150  A    between atoms: _406  and  _407
REMARK  151  A    between atoms: _410  and  _412
REMARK  152  A    between atoms: _412  and  _413
REMARK  153  A    between atoms: _412  and  _415
REMARK  154  A    between atoms: _415  and  _416
REMARK  155  A    between atoms: _416  and  _417
REMARK  156  A    between atoms: _420  and  _422
REMARK  157  A    between atoms: _422  and  _423
REMARK  158  A    between atoms: _422  and  _425
REMARK  159  A    between atoms: _425  and  _426
REMARK  160  A    between atoms: _426  and  _427
REMARK  161  A    between atoms: _427  and  _428
REMARK  162  A    between atoms: _437  and  _439
REMARK  163  A    between atoms: _439  and  _440
REMARK  164  A    between atoms: _442  and  _444
REMARK  165  A    between atoms: _444  and  _445
REMARK  166  A    between atoms: _444  and  _447
REMARK  167  A    between atoms: _447  and  _448
REMARK  168  A    between atoms: _451  and  _453
REMARK  169  A    between atoms: _453  and  _454
REMARK                            x       y       z     vdW  Elec       q    Type
REMARK                         _______ _______ _______ _____ _____    ______ ____
ROOT
ATOM      1  O   HOH     1      40.352  62.843   6.010  0.00  0.00    +0.000 OA
ENDROOT
TORSDOF 0
