REMARK  Name = ../refined-set-2016/2r0h/2r0h_pocket.pdb
REMARK  134 active torsions:
REMARK  status: ('A' for Active; 'I' for Inactive)
REMARK    1  A    between atoms: _2  and  _3
REMARK    2  A    between atoms: _8  and  _10
REMARK    3  A    between atoms: _10  and  _11
REMARK    4  A    between atoms: _10  and  _13
REMARK    5  A    between atoms: _13  and  _14
REMARK    6  A    between atoms: _17  and  _19
REMARK    7  A    between atoms: _19  and  _20
REMARK    8  A    between atoms: _22  and  _24
REMARK    9  A    between atoms: _24  and  _25
REMARK   10  A    between atoms: _24  and  _27
REMARK   11  A    between atoms: _27  and  _28
REMARK   12  A    between atoms: _31  and  _33
REMARK   13  A    between atoms: _33  and  _34
REMARK   14  A    between atoms: _33  and  _36
REMARK   15  A    between atoms: _36  and  _37
REMARK   16  A    between atoms: _40  and  _42
REMARK   17  A    between atoms: _42  and  _43
REMARK   18  A    between atoms: _42  and  _45
REMARK   19  A    between atoms: _45  and  _46
REMARK   20  A    between atoms: _51  and  _53
REMARK   21  A    between atoms: _53  and  _54
REMARK   22  A    between atoms: _53  and  _56
REMARK   23  A    between atoms: _56  and  _57
REMARK   24  A    between atoms: _60  and  _62
REMARK   25  A    between atoms: _62  and  _63
REMARK   26  A    between atoms: _62  and  _65
REMARK   27  A    between atoms: _65  and  _66
REMARK   28  A    between atoms: _71  and  _73
REMARK   29  A    between atoms: _73  and  _74
REMARK   30  A    between atoms: _73  and  _76
REMARK   31  A    between atoms: _76  and  _77
REMARK   32  A    between atoms: _82  and  _84
REMARK   33  A    between atoms: _84  and  _85
REMARK   34  A    between atoms: _84  and  _87
REMARK   35  A    between atoms: _90  and  _92
REMARK   36  A    between atoms: _92  and  _93
REMARK   37  A    between atoms: _92  and  _95
REMARK   38  A    between atoms: _95  and  _96
REMARK   39  A    between atoms: _101  and  _103
REMARK   40  A    between atoms: _103  and  _104
REMARK   41  A    between atoms: _103  and  _106
REMARK   42  A    between atoms: _106  and  _107
REMARK   43  A    between atoms: _110  and  _112
REMARK   44  A    between atoms: _112  and  _113
REMARK   45  A    between atoms: _115  and  _117
REMARK   46  A    between atoms: _117  and  _118
REMARK   47  A    between atoms: _117  and  _120
REMARK   48  A    between atoms: _120  and  _121
REMARK   49  A    between atoms: _121  and  _122
REMARK   50  A    between atoms: _122  and  _123
REMARK   51  A    between atoms: _132  and  _134
REMARK   52  A    between atoms: _134  and  _135
REMARK   53  A    between atoms: _134  and  _137
REMARK   54  A    between atoms: _137  and  _138
REMARK   55  A    between atoms: _138  and  _139
REMARK   56  A    between atoms: _142  and  _144
REMARK   57  A    between atoms: _144  and  _145
REMARK   58  A    between atoms: _144  and  _147
REMARK   59  A    between atoms: _150  and  _152
REMARK   60  A    between atoms: _152  and  _153
REMARK   61  A    between atoms: _152  and  _155
REMARK   62  A    between atoms: _155  and  _156
REMARK   63  A    between atoms: _162  and  _164
REMARK   64  A    between atoms: _164  and  _165
REMARK   65  A    between atoms: _164  and  _167
REMARK   66  A    between atoms: _167  and  _168
REMARK   67  A    between atoms: _173  and  _175
REMARK   68  A    between atoms: _175  and  _176
REMARK   69  A    between atoms: _175  and  _178
REMARK   70  A    between atoms: _178  and  _179
REMARK   71  A    between atoms: _181  and  _183
REMARK   72  A    between atoms: _183  and  _184
REMARK   73  A    between atoms: _183  and  _186
REMARK   74  A    between atoms: _186  and  _187
REMARK   75  A    between atoms: _190  and  _192
REMARK   76  A    between atoms: _192  and  _193
REMARK   77  A    between atoms: _192  and  _195
REMARK   78  A    between atoms: _195  and  _196
REMARK   79  A    between atoms: _198  and  _200
REMARK   80  A    between atoms: _200  and  _201
REMARK   81  A    between atoms: _200  and  _203
REMARK   82  A    between atoms: _203  and  _204
REMARK   83  A    between atoms: _204  and  _205
REMARK   84  A    between atoms: _205  and  _206
REMARK   85  A    between atoms: _215  and  _217
REMARK   86  A    between atoms: _217  and  _218
REMARK   87  A    between atoms: _221  and  _222
REMARK   88  A    between atoms: _227  and  _229
REMARK   89  A    between atoms: _229  and  _230
REMARK   90  A    between atoms: _229  and  _232
REMARK   91  A    between atoms: _232  and  _233
REMARK   92  A    between atoms: _233  and  _234
REMARK   93  A    between atoms: _237  and  _239
REMARK   94  A    between atoms: _239  and  _240
REMARK   95  A    between atoms: _239  and  _242
REMARK   96  A    between atoms: _242  and  _243
REMARK   97  A    between atoms: _243  and  _244
REMARK   98  A    between atoms: _247  and  _249
REMARK   99  A    between atoms: _249  and  _250
REMARK  100  A    between atoms: _249  and  _252
REMARK  101  A    between atoms: _252  and  _253
REMARK  102  A    between atoms: _253  and  _254
REMARK  103  A    between atoms: _254  and  _255
REMARK  104  A    between atoms: _264  and  _266
REMARK  105  A    between atoms: _266  and  _267
REMARK  106  A    between atoms: _266  and  _269
REMARK  107  A    between atoms: _269  and  _270
REMARK  108  A    between atoms: _270  and  _271
REMARK  109  A    between atoms: _271  and  _272
REMARK  110  A    between atoms: _281  and  _283
REMARK  111  A    between atoms: _283  and  _284
REMARK  112  A    between atoms: _283  and  _286
REMARK  113  A    between atoms: _286  and  _287
REMARK  114  A    between atoms: _287  and  _288
REMARK  115  A    between atoms: _288  and  _289
REMARK  116  A    between atoms: _289  and  _290
REMARK  117  A    between atoms: _294  and  _296
REMARK  118  A    between atoms: _296  and  _297
REMARK  119  A    between atoms: _296  and  _299
REMARK  120  A    between atoms: _299  and  _300
REMARK  121  A    between atoms: _303  and  _305
REMARK  122  A    between atoms: _305  and  _306
REMARK  123  A    between atoms: _305  and  _308
REMARK  124  A    between atoms: _308  and  _309
REMARK  125  A    between atoms: _314  and  _316
REMARK  126  A    between atoms: _316  and  _317
REMARK  127  A    between atoms: _316  and  _319
REMARK  128  A    between atoms: _319  and  _320
REMARK  129  A    between atoms: _320  and  _321
REMARK  130  A    between atoms: _324  and  _326
REMARK  131  A    between atoms: _326  and  _327
REMARK  132  A    between atoms: _326  and  _329
REMARK  133  A    between atoms: _329  and  _330
REMARK  134  A    between atoms: _330  and  _331
REMARK                            x       y       z     vdW  Elec       q    Type
REMARK                         _______ _______ _______ _____ _____    ______ ____
ROOT
ATOM      1  CA  ASP A   5      28.016  -9.622   1.338  0.00  0.00    +0.160 C 
ENDROOT
BRANCH   1   3
ATOM      2  C   ILE A   4      28.805 -10.631  -0.813  0.00  0.00    +0.241 C 
ATOM      3  N   ASP A   5      28.943  -9.716   0.165  0.00  0.00    -0.297 N 
ATOM      4  H   ASP A   5      29.732  -9.041   0.103  0.00  0.00    +0.150 HD
ATOM      5  O   ILE A   4      27.947 -11.513  -0.793  0.00  0.00    -0.273 OA
BRANCH   2   6
ATOM      6  CA  ILE A   4      29.820 -10.614  -1.973  0.00  0.00    +0.149 C 
BRANCH   6   8
ATOM      7  C   GLY A   3      31.970 -11.831  -2.064  0.00  0.00    +0.243 C 
ATOM      8  N   ILE A   4      30.633 -11.847  -2.030  0.00  0.00    -0.297 N 
ATOM      9  H   ILE A   4      30.145 -12.765  -2.044  0.00  0.00    +0.150 HD
ATOM     10  O   GLY A   3      32.615 -10.785  -2.080  0.00  0.00    -0.273 OA
BRANCH   7  11
ATOM     11  CA  GLY A   3      32.685 -13.176  -2.118  0.00  0.00    +0.176 C 
BRANCH  11  13
ATOM     12  C   THR A   2      31.128 -14.591  -3.308  0.00  0.00    +0.243 C 
ATOM     13  N   GLY A   3      31.797 -14.322  -2.200  0.00  0.00    -0.295 N 
ATOM     14  H   GLY A   3      31.685 -14.942  -1.373  0.00  0.00    +0.150 HD
ATOM     15  O   THR A   2      31.187 -13.876  -4.331  0.00  0.00    -0.273 OA
BRANCH  12  16
ATOM     16  CA  THR A   2      30.223 -15.818  -3.247  0.00  0.00    +0.176 C 
BRANCH  16  18
ATOM     17  C   PRO A   1      31.574 -17.643  -2.337  0.00  0.00    +0.239 C 
ATOM     18  N   THR A   2      30.558 -16.787  -2.182  0.00  0.00    -0.295 N 
ATOM     19  H   THR A   2      29.999 -16.803  -1.305  0.00  0.00    +0.150 HD
ATOM     20  O   PRO A   1      32.301 -17.624  -3.314  0.00  0.00    -0.274 OA
BRANCH  17  25
ATOM     21  N   PRO A   1      31.400 -18.393   0.120  0.00  0.00    -0.210 NA
ATOM     22  CD  PRO A   1      30.458 -19.433   0.573  0.00  0.00    +0.089 C 
ATOM     23  CG  PRO A   1      30.096 -20.149  -0.688  0.00  0.00    +0.021 C 
ATOM     24  CB  PRO A   1      31.303 -20.026  -1.565  0.00  0.00    +0.028 C 
ATOM     25  CA  PRO A   1      31.889 -18.647  -1.231  0.00  0.00    +0.149 C 
ENDBRANCH  17  25
ENDBRANCH  16  18
BRANCH  16  26
ATOM     26  CB  THR A   2      28.755 -15.295  -3.128  0.00  0.00    +0.137 C 
ATOM     27  CG2 THR A   2      27.759 -16.429  -3.172  0.00  0.00    +0.034 C 
BRANCH  26  28
ATOM     28  OG1 THR A   2      28.608 -14.521  -1.926  0.00  0.00    -0.382 OA
ATOM     29  HG1 THR A   2      28.818 -15.088  -1.142  0.00  0.00    +0.210 HD
ENDBRANCH  26  28
ENDBRANCH  16  26
ENDBRANCH  12  16
ENDBRANCH  11  13
ENDBRANCH   7  11
ENDBRANCH   6   8
BRANCH   6  30
ATOM     30  CB  ILE A   4      29.013 -10.447  -3.278  0.00  0.00    +0.027 C 
ATOM     31  CG2 ILE A   4      28.176  -9.192  -3.218  0.00  0.00    +0.002 C 
BRANCH  30  32
ATOM     32  CG1 ILE A   4      29.937 -10.475  -4.501  0.00  0.00    +0.002 C 
ATOM     33  CD1 ILE A   4      29.208 -10.352  -5.844  0.00  0.00    +0.000 C 
ENDBRANCH  30  32
ENDBRANCH   6  30
ENDBRANCH   2   6
ENDBRANCH   1   3
BRANCH   1  34
ATOM     34  C   ASP A   5      26.723  -9.034   0.745  0.00  0.00    +0.241 C 
ATOM     35  N   ASN A   6      25.745  -9.897   0.559  0.00  0.00    -0.297 N 
ATOM     36  H   ASN A   6      25.865 -10.885   0.862  0.00  0.00    +0.150 HD
ATOM     37  O   ASP A   5      26.587  -7.839   0.502  0.00  0.00    -0.273 OA
BRANCH  35  38
ATOM     38  CA  ASN A   6      24.495  -9.480  -0.069  0.00  0.00    +0.158 C 
BRANCH  38  39
ATOM     39  C   ASN A   6      23.208 -10.105   0.473  0.00  0.00    +0.241 C 
ATOM     40  N   THR A   7      22.369  -9.249   1.043  0.00  0.00    -0.295 N 
ATOM     41  H   THR A   7      22.660  -8.252   1.104  0.00  0.00    +0.150 HD
ATOM     42  O   ASN A   6      23.066 -11.323   0.484  0.00  0.00    -0.273 OA
BRANCH  40  43
ATOM     43  CA  THR A   7      21.072  -9.610   1.587  0.00  0.00    +0.176 C 
BRANCH  43  44
ATOM     44  C   THR A   7      20.141  -8.715   0.792  0.00  0.00    +0.243 C 
ATOM     45  O   THR A   7      20.384  -7.522   0.666  0.00  0.00    -0.273 OA
ATOM     46  N   ASN A   8      19.070  -9.292   0.260  0.00  0.00    -0.298 N 
ATOM     47  H   ASN A   8      18.882 -10.297   0.449  0.00  0.00    +0.150 HD
BRANCH  46  48
ATOM     48  CA  ASN A   8      18.155  -8.537  -0.585  0.00  0.00    +0.146 C 
BRANCH  48  49
ATOM     49  C   ASN A   8      16.681  -8.901  -0.437  0.00  0.00    +0.227 C 
ATOM     50  O   ASN A   8      16.335  -9.994   0.007  0.00  0.00    -0.286 OA
ENDBRANCH  48  49
BRANCH  48  51
ATOM     51  CB  ASN A   8      18.569  -8.656  -2.052  0.00  0.00    +0.112 C 
BRANCH  51  52
ATOM     52  CG  ASN A   8      18.764 -10.095  -2.486  0.00  0.00    +0.222 C 
ATOM     53  OD1 ASN A   8      19.781 -10.715  -2.181  0.00  0.00    -0.275 OA
ATOM     54  ND2 ASN A   8      17.789 -10.633  -3.207  0.00  0.00    -0.329 N 
ATOM     55 HD21 ASN A   8      16.946 -10.072  -3.442  0.00  0.00    +0.145 HD
ATOM     56 HD22 ASN A   8      17.868 -11.616  -3.537  0.00  0.00    +0.145 HD
ENDBRANCH  51  52
ENDBRANCH  48  51
ENDBRANCH  46  48
ENDBRANCH  43  44
BRANCH  43  57
ATOM     57  CB  THR A   7      20.901  -9.334   3.078  0.00  0.00    +0.137 C 
ATOM     58  CG2 THR A   7      19.464  -9.672   3.486  0.00  0.00    +0.034 C 
BRANCH  57  59
ATOM     59  OG1 THR A   7      21.761 -10.205   3.817  0.00  0.00    -0.382 OA
ATOM     60  HG1 THR A   7      22.701 -10.041   3.553  0.00  0.00    +0.210 HD
ENDBRANCH  57  59
ENDBRANCH  43  57
ENDBRANCH  40  43
ENDBRANCH  38  39
BRANCH  38  61
ATOM     61  CB  ASN A   6      24.644  -9.866  -1.549  0.00  0.00    +0.114 C 
BRANCH  61  62
ATOM     62  CG  ASN A   6      23.363  -9.686  -2.344  0.00  0.00    +0.222 C 
ATOM     63  OD1 ASN A   6      22.415  -9.099  -1.857  0.00  0.00    -0.275 OA
ATOM     64  ND2 ASN A   6      23.322 -10.233  -3.547  0.00  0.00    -0.329 N 
ATOM     65 HD21 ASN A   6      24.157 -10.725  -3.923  0.00  0.00    +0.145 HD
ATOM     66 HD22 ASN A   6      22.454 -10.171  -4.117  0.00  0.00    +0.145 HD
ENDBRANCH  61  62
ENDBRANCH  38  61
ENDBRANCH  35  38
ENDBRANCH   1  34
BRANCH   1  67
ATOM     67  CB  ASP A   5      28.654  -8.761   2.427  0.00  0.00    +0.143 C 
BRANCH  67  68
ATOM     68  CG  ASP A   5      27.844  -8.705   3.717  0.00  0.00    +0.367 C 
ATOM     69  OD2 ASP A   5      28.479  -8.414   4.738  0.00  0.00    -0.246 OA
ATOM     70  OD1 ASP A   5      26.620  -9.000   3.746  0.00  0.00    -0.246 OA
ENDBRANCH  67  68
ENDBRANCH   1  67
TORSDOF 27
REMARK  Name = ../refined-set-2016/2r0h/2r0h_pocket.pdb
REMARK  134 active torsions:
REMARK  status: ('A' for Active; 'I' for Inactive)
REMARK    1  A    between atoms: _2  and  _3
REMARK    2  A    between atoms: _8  and  _10
REMARK    3  A    between atoms: _10  and  _11
REMARK    4  A    between atoms: _10  and  _13
REMARK    5  A    between atoms: _13  and  _14
REMARK    6  A    between atoms: _17  and  _19
REMARK    7  A    between atoms: _19  and  _20
REMARK    8  A    between atoms: _22  and  _24
REMARK    9  A    between atoms: _24  and  _25
REMARK   10  A    between atoms: _24  and  _27
REMARK   11  A    between atoms: _27  and  _28
REMARK   12  A    between atoms: _31  and  _33
REMARK   13  A    between atoms: _33  and  _34
REMARK   14  A    between atoms: _33  and  _36
REMARK   15  A    between atoms: _36  and  _37
REMARK   16  A    between atoms: _40  and  _42
REMARK   17  A    between atoms: _42  and  _43
REMARK   18  A    between atoms: _42  and  _45
REMARK   19  A    between atoms: _45  and  _46
REMARK   20  A    between atoms: _51  and  _53
REMARK   21  A    between atoms: _53  and  _54
REMARK   22  A    between atoms: _53  and  _56
REMARK   23  A    between atoms: _56  and  _57
REMARK   24  A    between atoms: _60  and  _62
REMARK   25  A    between atoms: _62  and  _63
REMARK   26  A    between atoms: _62  and  _65
REMARK   27  A    between atoms: _65  and  _66
REMARK   28  A    between atoms: _71  and  _73
REMARK   29  A    between atoms: _73  and  _74
REMARK   30  A    between atoms: _73  and  _76
REMARK   31  A    between atoms: _76  and  _77
REMARK   32  A    between atoms: _82  and  _84
REMARK   33  A    between atoms: _84  and  _85
REMARK   34  A    between atoms: _84  and  _87
REMARK   35  A    between atoms: _90  and  _92
REMARK   36  A    between atoms: _92  and  _93
REMARK   37  A    between atoms: _92  and  _95
REMARK   38  A    between atoms: _95  and  _96
REMARK   39  A    between atoms: _101  and  _103
REMARK   40  A    between atoms: _103  and  _104
REMARK   41  A    between atoms: _103  and  _106
REMARK   42  A    between atoms: _106  and  _107
REMARK   43  A    between atoms: _110  and  _112
REMARK   44  A    between atoms: _112  and  _113
REMARK   45  A    between atoms: _115  and  _117
REMARK   46  A    between atoms: _117  and  _118
REMARK   47  A    between atoms: _117  and  _120
REMARK   48  A    between atoms: _120  and  _121
REMARK   49  A    between atoms: _121  and  _122
REMARK   50  A    between atoms: _122  and  _123
REMARK   51  A    between atoms: _132  and  _134
REMARK   52  A    between atoms: _134  and  _135
REMARK   53  A    between atoms: _134  and  _137
REMARK   54  A    between atoms: _137  and  _138
REMARK   55  A    between atoms: _138  and  _139
REMARK   56  A    between atoms: _142  and  _144
REMARK   57  A    between atoms: _144  and  _145
REMARK   58  A    between atoms: _144  and  _147
REMARK   59  A    between atoms: _150  and  _152
REMARK   60  A    between atoms: _152  and  _153
REMARK   61  A    between atoms: _152  and  _155
REMARK   62  A    between atoms: _155  and  _156
REMARK   63  A    between atoms: _162  and  _164
REMARK   64  A    between atoms: _164  and  _165
REMARK   65  A    between atoms: _164  and  _167
REMARK   66  A    between atoms: _167  and  _168
REMARK   67  A    between atoms: _173  and  _175
REMARK   68  A    between atoms: _175  and  _176
REMARK   69  A    between atoms: _175  and  _178
REMARK   70  A    between atoms: _178  and  _179
REMARK   71  A    between atoms: _181  and  _183
REMARK   72  A    between atoms: _183  and  _184
REMARK   73  A    between atoms: _183  and  _186
REMARK   74  A    between atoms: _186  and  _187
REMARK   75  A    between atoms: _190  and  _192
REMARK   76  A    between atoms: _192  and  _193
REMARK   77  A    between atoms: _192  and  _195
REMARK   78  A    between atoms: _195  and  _196
REMARK   79  A    between atoms: _198  and  _200
REMARK   80  A    between atoms: _200  and  _201
REMARK   81  A    between atoms: _200  and  _203
REMARK   82  A    between atoms: _203  and  _204
REMARK   83  A    between atoms: _204  and  _205
REMARK   84  A    between atoms: _205  and  _206
REMARK   85  A    between atoms: _215  and  _217
REMARK   86  A    between atoms: _217  and  _218
REMARK   87  A    between atoms: _221  and  _222
REMARK   88  A    between atoms: _227  and  _229
REMARK   89  A    between atoms: _229  and  _230
REMARK   90  A    between atoms: _229  and  _232
REMARK   91  A    between atoms: _232  and  _233
REMARK   92  A    between atoms: _233  and  _234
REMARK   93  A    between atoms: _237  and  _239
REMARK   94  A    between atoms: _239  and  _240
REMARK   95  A    between atoms: _239  and  _242
REMARK   96  A    between atoms: _242  and  _243
REMARK   97  A    between atoms: _243  and  _244
REMARK   98  A    between atoms: _247  and  _249
REMARK   99  A    between atoms: _249  and  _250
REMARK  100  A    between atoms: _249  and  _252
REMARK  101  A    between atoms: _252  and  _253
REMARK  102  A    between atoms: _253  and  _254
REMARK  103  A    between atoms: _254  and  _255
REMARK  104  A    between atoms: _264  and  _266
REMARK  105  A    between atoms: _266  and  _267
REMARK  106  A    between atoms: _266  and  _269
REMARK  107  A    between atoms: _269  and  _270
REMARK  108  A    between atoms: _270  and  _271
REMARK  109  A    between atoms: _271  and  _272
REMARK  110  A    between atoms: _281  and  _283
REMARK  111  A    between atoms: _283  and  _284
REMARK  112  A    between atoms: _283  and  _286
REMARK  113  A    between atoms: _286  and  _287
REMARK  114  A    between atoms: _287  and  _288
REMARK  115  A    between atoms: _288  and  _289
REMARK  116  A    between atoms: _289  and  _290
REMARK  117  A    between atoms: _294  and  _296
REMARK  118  A    between atoms: _296  and  _297
REMARK  119  A    between atoms: _296  and  _299
REMARK  120  A    between atoms: _299  and  _300
REMARK  121  A    between atoms: _303  and  _305
REMARK  122  A    between atoms: _305  and  _306
REMARK  123  A    between atoms: _305  and  _308
REMARK  124  A    between atoms: _308  and  _309
REMARK  125  A    between atoms: _314  and  _316
REMARK  126  A    between atoms: _316  and  _317
REMARK  127  A    between atoms: _316  and  _319
REMARK  128  A    between atoms: _319  and  _320
REMARK  129  A    between atoms: _320  and  _321
REMARK  130  A    between atoms: _324  and  _326
REMARK  131  A    between atoms: _326  and  _327
REMARK  132  A    between atoms: _326  and  _329
REMARK  133  A    between atoms: _329  and  _330
REMARK  134  A    between atoms: _330  and  _331
REMARK                            x       y       z     vdW  Elec       q    Type
REMARK                         _______ _______ _______ _____ _____    ______ ____
ROOT
ATOM      1  CB  ASN A   1      13.135  -9.571  -4.927  0.00  0.00    +0.110 C 
ENDROOT
BRANCH   1   2
ATOM      2  CG  ASN A   1      14.623  -9.875  -4.752  0.00  0.00    +0.221 C 
ATOM      3  OD1 ASN A   1      15.007 -10.675  -3.880  0.00  0.00    -0.275 OA
ATOM      4  ND2 ASN A   1      15.461  -9.174  -5.488  0.00  0.00    -0.329 N 
ATOM      5 HD21 ASN A   1      16.487  -9.279  -5.351  0.00  0.00    +0.145 HD
ATOM      6 HD22 ASN A   1      15.097  -8.516  -6.206  0.00  0.00    +0.145 HD
ENDBRANCH   1   2
BRANCH   1   7
ATOM      7  CA  ASN A   1      12.658  -8.281  -4.228  0.00  0.00    +0.142 C 
BRANCH   7   8
ATOM      8  N   ASN A   1      12.936  -8.484  -2.823  0.00  0.00    -0.239 NA
ATOM      9  H   ASN A   1      12.303  -9.053  -2.226  0.00  0.00    +0.142 HD
ENDBRANCH   7   8
BRANCH   7  10
ATOM     10  C   ASN A   1      11.170  -8.296  -4.471  0.00  0.00    +0.225 C 
ATOM     11  O   ASN A   1      10.449  -8.966  -3.743  0.00  0.00    -0.287 OA
ENDBRANCH   7  10
ENDBRANCH   1   7
TORSDOF 4
REMARK  Name = ../refined-set-2016/2r0h/2r0h_pocket.pdb
REMARK  134 active torsions:
REMARK  status: ('A' for Active; 'I' for Inactive)
REMARK    1  A    between atoms: _2  and  _3
REMARK    2  A    between atoms: _8  and  _10
REMARK    3  A    between atoms: _10  and  _11
REMARK    4  A    between atoms: _10  and  _13
REMARK    5  A    between atoms: _13  and  _14
REMARK    6  A    between atoms: _17  and  _19
REMARK    7  A    between atoms: _19  and  _20
REMARK    8  A    between atoms: _22  and  _24
REMARK    9  A    between atoms: _24  and  _25
REMARK   10  A    between atoms: _24  and  _27
REMARK   11  A    between atoms: _27  and  _28
REMARK   12  A    between atoms: _31  and  _33
REMARK   13  A    between atoms: _33  and  _34
REMARK   14  A    between atoms: _33  and  _36
REMARK   15  A    between atoms: _36  and  _37
REMARK   16  A    between atoms: _40  and  _42
REMARK   17  A    between atoms: _42  and  _43
REMARK   18  A    between atoms: _42  and  _45
REMARK   19  A    between atoms: _45  and  _46
REMARK   20  A    between atoms: _51  and  _53
REMARK   21  A    between atoms: _53  and  _54
REMARK   22  A    between atoms: _53  and  _56
REMARK   23  A    between atoms: _56  and  _57
REMARK   24  A    between atoms: _60  and  _62
REMARK   25  A    between atoms: _62  and  _63
REMARK   26  A    between atoms: _62  and  _65
REMARK   27  A    between atoms: _65  and  _66
REMARK   28  A    between atoms: _71  and  _73
REMARK   29  A    between atoms: _73  and  _74
REMARK   30  A    between atoms: _73  and  _76
REMARK   31  A    between atoms: _76  and  _77
REMARK   32  A    between atoms: _82  and  _84
REMARK   33  A    between atoms: _84  and  _85
REMARK   34  A    between atoms: _84  and  _87
REMARK   35  A    between atoms: _90  and  _92
REMARK   36  A    between atoms: _92  and  _93
REMARK   37  A    between atoms: _92  and  _95
REMARK   38  A    between atoms: _95  and  _96
REMARK   39  A    between atoms: _101  and  _103
REMARK   40  A    between atoms: _103  and  _104
REMARK   41  A    between atoms: _103  and  _106
REMARK   42  A    between atoms: _106  and  _107
REMARK   43  A    between atoms: _110  and  _112
REMARK   44  A    between atoms: _112  and  _113
REMARK   45  A    between atoms: _115  and  _117
REMARK   46  A    between atoms: _117  and  _118
REMARK   47  A    between atoms: _117  and  _120
REMARK   48  A    between atoms: _120  and  _121
REMARK   49  A    between atoms: _121  and  _122
REMARK   50  A    between atoms: _122  and  _123
REMARK   51  A    between atoms: _132  and  _134
REMARK   52  A    between atoms: _134  and  _135
REMARK   53  A    between atoms: _134  and  _137
REMARK   54  A    between atoms: _137  and  _138
REMARK   55  A    between atoms: _138  and  _139
REMARK   56  A    between atoms: _142  and  _144
REMARK   57  A    between atoms: _144  and  _145
REMARK   58  A    between atoms: _144  and  _147
REMARK   59  A    between atoms: _150  and  _152
REMARK   60  A    between atoms: _152  and  _153
REMARK   61  A    between atoms: _152  and  _155
REMARK   62  A    between atoms: _155  and  _156
REMARK   63  A    between atoms: _162  and  _164
REMARK   64  A    between atoms: _164  and  _165
REMARK   65  A    between atoms: _164  and  _167
REMARK   66  A    between atoms: _167  and  _168
REMARK   67  A    between atoms: _173  and  _175
REMARK   68  A    between atoms: _175  and  _176
REMARK   69  A    between atoms: _175  and  _178
REMARK   70  A    between atoms: _178  and  _179
REMARK   71  A    between atoms: _181  and  _183
REMARK   72  A    between atoms: _183  and  _184
REMARK   73  A    between atoms: _183  and  _186
REMARK   74  A    between atoms: _186  and  _187
REMARK   75  A    between atoms: _190  and  _192
REMARK   76  A    between atoms: _192  and  _193
REMARK   77  A    between atoms: _192  and  _195
REMARK   78  A    between atoms: _195  and  _196
REMARK   79  A    between atoms: _198  and  _200
REMARK   80  A    between atoms: _200  and  _201
REMARK   81  A    between atoms: _200  and  _203
REMARK   82  A    between atoms: _203  and  _204
REMARK   83  A    between atoms: _204  and  _205
REMARK   84  A    between atoms: _205  and  _206
REMARK   85  A    between atoms: _215  and  _217
REMARK   86  A    between atoms: _217  and  _218
REMARK   87  A    between atoms: _221  and  _222
REMARK   88  A    between atoms: _227  and  _229
REMARK   89  A    between atoms: _229  and  _230
REMARK   90  A    between atoms: _229  and  _232
REMARK   91  A    between atoms: _232  and  _233
REMARK   92  A    between atoms: _233  and  _234
REMARK   93  A    between atoms: _237  and  _239
REMARK   94  A    between atoms: _239  and  _240
REMARK   95  A    between atoms: _239  and  _242
REMARK   96  A    between atoms: _242  and  _243
REMARK   97  A    between atoms: _243  and  _244
REMARK   98  A    between atoms: _247  and  _249
REMARK   99  A    between atoms: _249  and  _250
REMARK  100  A    between atoms: _249  and  _252
REMARK  101  A    between atoms: _252  and  _253
REMARK  102  A    between atoms: _253  and  _254
REMARK  103  A    between atoms: _254  and  _255
REMARK  104  A    between atoms: _264  and  _266
REMARK  105  A    between atoms: _266  and  _267
REMARK  106  A    between atoms: _266  and  _269
REMARK  107  A    between atoms: _269  and  _270
REMARK  108  A    between atoms: _270  and  _271
REMARK  109  A    between atoms: _271  and  _272
REMARK  110  A    between atoms: _281  and  _283
REMARK  111  A    between atoms: _283  and  _284
REMARK  112  A    between atoms: _283  and  _286
REMARK  113  A    between atoms: _286  and  _287
REMARK  114  A    between atoms: _287  and  _288
REMARK  115  A    between atoms: _288  and  _289
REMARK  116  A    between atoms: _289  and  _290
REMARK  117  A    between atoms: _294  and  _296
REMARK  118  A    between atoms: _296  and  _297
REMARK  119  A    between atoms: _296  and  _299
REMARK  120  A    between atoms: _299  and  _300
REMARK  121  A    between atoms: _303  and  _305
REMARK  122  A    between atoms: _305  and  _306
REMARK  123  A    between atoms: _305  and  _308
REMARK  124  A    between atoms: _308  and  _309
REMARK  125  A    between atoms: _314  and  _316
REMARK  126  A    between atoms: _316  and  _317
REMARK  127  A    between atoms: _316  and  _319
REMARK  128  A    between atoms: _319  and  _320
REMARK  129  A    between atoms: _320  and  _321
REMARK  130  A    between atoms: _324  and  _326
REMARK  131  A    between atoms: _326  and  _327
REMARK  132  A    between atoms: _326  and  _329
REMARK  133  A    between atoms: _329  and  _330
REMARK  134  A    between atoms: _330  and  _331
REMARK                            x       y       z     vdW  Elec       q    Type
REMARK                         _______ _______ _______ _____ _____    ______ ____
ROOT
ATOM      1  CA  VAL A   1      12.352  -9.305 -10.422  0.00  0.00    +0.133 C 
ENDROOT
BRANCH   1   2
ATOM      2  CB  VAL A   1      13.729  -9.562  -9.753  0.00  0.00    +0.023 C 
ATOM      3  CG2 VAL A   1      13.974  -8.592  -8.624  0.00  0.00    +0.002 C 
ATOM      4  CG1 VAL A   1      13.772 -10.979  -9.278  0.00  0.00    +0.002 C 
ENDBRANCH   1   2
BRANCH   1   5
ATOM      5  N   VAL A   1      12.176 -10.112 -11.612  0.00  0.00    -0.239 NA
ATOM      6  H   VAL A   1      12.998 -10.336 -12.208  0.00  0.00    +0.142 HD
ENDBRANCH   1   5
BRANCH   1   7
ATOM      7  C   VAL A   1      12.180  -7.858 -10.903  0.00  0.00    +0.224 C 
ATOM      8  O   VAL A   1      13.055  -7.288 -11.573  0.00  0.00    -0.287 OA
ENDBRANCH   1   7
TORSDOF 3
REMARK  Name = ../refined-set-2016/2r0h/2r0h_pocket.pdb
REMARK  134 active torsions:
REMARK  status: ('A' for Active; 'I' for Inactive)
REMARK    1  A    between atoms: _2  and  _3
REMARK    2  A    between atoms: _8  and  _10
REMARK    3  A    between atoms: _10  and  _11
REMARK    4  A    between atoms: _10  and  _13
REMARK    5  A    between atoms: _13  and  _14
REMARK    6  A    between atoms: _17  and  _19
REMARK    7  A    between atoms: _19  and  _20
REMARK    8  A    between atoms: _22  and  _24
REMARK    9  A    between atoms: _24  and  _25
REMARK   10  A    between atoms: _24  and  _27
REMARK   11  A    between atoms: _27  and  _28
REMARK   12  A    between atoms: _31  and  _33
REMARK   13  A    between atoms: _33  and  _34
REMARK   14  A    between atoms: _33  and  _36
REMARK   15  A    between atoms: _36  and  _37
REMARK   16  A    between atoms: _40  and  _42
REMARK   17  A    between atoms: _42  and  _43
REMARK   18  A    between atoms: _42  and  _45
REMARK   19  A    between atoms: _45  and  _46
REMARK   20  A    between atoms: _51  and  _53
REMARK   21  A    between atoms: _53  and  _54
REMARK   22  A    between atoms: _53  and  _56
REMARK   23  A    between atoms: _56  and  _57
REMARK   24  A    between atoms: _60  and  _62
REMARK   25  A    between atoms: _62  and  _63
REMARK   26  A    between atoms: _62  and  _65
REMARK   27  A    between atoms: _65  and  _66
REMARK   28  A    between atoms: _71  and  _73
REMARK   29  A    between atoms: _73  and  _74
REMARK   30  A    between atoms: _73  and  _76
REMARK   31  A    between atoms: _76  and  _77
REMARK   32  A    between atoms: _82  and  _84
REMARK   33  A    between atoms: _84  and  _85
REMARK   34  A    between atoms: _84  and  _87
REMARK   35  A    between atoms: _90  and  _92
REMARK   36  A    between atoms: _92  and  _93
REMARK   37  A    between atoms: _92  and  _95
REMARK   38  A    between atoms: _95  and  _96
REMARK   39  A    between atoms: _101  and  _103
REMARK   40  A    between atoms: _103  and  _104
REMARK   41  A    between atoms: _103  and  _106
REMARK   42  A    between atoms: _106  and  _107
REMARK   43  A    between atoms: _110  and  _112
REMARK   44  A    between atoms: _112  and  _113
REMARK   45  A    between atoms: _115  and  _117
REMARK   46  A    between atoms: _117  and  _118
REMARK   47  A    between atoms: _117  and  _120
REMARK   48  A    between atoms: _120  and  _121
REMARK   49  A    between atoms: _121  and  _122
REMARK   50  A    between atoms: _122  and  _123
REMARK   51  A    between atoms: _132  and  _134
REMARK   52  A    between atoms: _134  and  _135
REMARK   53  A    between atoms: _134  and  _137
REMARK   54  A    between atoms: _137  and  _138
REMARK   55  A    between atoms: _138  and  _139
REMARK   56  A    between atoms: _142  and  _144
REMARK   57  A    between atoms: _144  and  _145
REMARK   58  A    between atoms: _144  and  _147
REMARK   59  A    between atoms: _150  and  _152
REMARK   60  A    between atoms: _152  and  _153
REMARK   61  A    between atoms: _152  and  _155
REMARK   62  A    between atoms: _155  and  _156
REMARK   63  A    between atoms: _162  and  _164
REMARK   64  A    between atoms: _164  and  _165
REMARK   65  A    between atoms: _164  and  _167
REMARK   66  A    between atoms: _167  and  _168
REMARK   67  A    between atoms: _173  and  _175
REMARK   68  A    between atoms: _175  and  _176
REMARK   69  A    between atoms: _175  and  _178
REMARK   70  A    between atoms: _178  and  _179
REMARK   71  A    between atoms: _181  and  _183
REMARK   72  A    between atoms: _183  and  _184
REMARK   73  A    between atoms: _183  and  _186
REMARK   74  A    between atoms: _186  and  _187
REMARK   75  A    between atoms: _190  and  _192
REMARK   76  A    between atoms: _192  and  _193
REMARK   77  A    between atoms: _192  and  _195
REMARK   78  A    between atoms: _195  and  _196
REMARK   79  A    between atoms: _198  and  _200
REMARK   80  A    between atoms: _200  and  _201
REMARK   81  A    between atoms: _200  and  _203
REMARK   82  A    between atoms: _203  and  _204
REMARK   83  A    between atoms: _204  and  _205
REMARK   84  A    between atoms: _205  and  _206
REMARK   85  A    between atoms: _215  and  _217
REMARK   86  A    between atoms: _217  and  _218
REMARK   87  A    between atoms: _221  and  _222
REMARK   88  A    between atoms: _227  and  _229
REMARK   89  A    between atoms: _229  and  _230
REMARK   90  A    between atoms: _229  and  _232
REMARK   91  A    between atoms: _232  and  _233
REMARK   92  A    between atoms: _233  and  _234
REMARK   93  A    between atoms: _237  and  _239
REMARK   94  A    between atoms: _239  and  _240
REMARK   95  A    between atoms: _239  and  _242
REMARK   96  A    between atoms: _242  and  _243
REMARK   97  A    between atoms: _243  and  _244
REMARK   98  A    between atoms: _247  and  _249
REMARK   99  A    between atoms: _249  and  _250
REMARK  100  A    between atoms: _249  and  _252
REMARK  101  A    between atoms: _252  and  _253
REMARK  102  A    between atoms: _253  and  _254
REMARK  103  A    between atoms: _254  and  _255
REMARK  104  A    between atoms: _264  and  _266
REMARK  105  A    between atoms: _266  and  _267
REMARK  106  A    between atoms: _266  and  _269
REMARK  107  A    between atoms: _269  and  _270
REMARK  108  A    between atoms: _270  and  _271
REMARK  109  A    between atoms: _271  and  _272
REMARK  110  A    between atoms: _281  and  _283
REMARK  111  A    between atoms: _283  and  _284
REMARK  112  A    between atoms: _283  and  _286
REMARK  113  A    between atoms: _286  and  _287
REMARK  114  A    between atoms: _287  and  _288
REMARK  115  A    between atoms: _288  and  _289
REMARK  116  A    between atoms: _289  and  _290
REMARK  117  A    between atoms: _294  and  _296
REMARK  118  A    between atoms: _296  and  _297
REMARK  119  A    between atoms: _296  and  _299
REMARK  120  A    between atoms: _299  and  _300
REMARK  121  A    between atoms: _303  and  _305
REMARK  122  A    between atoms: _305  and  _306
REMARK  123  A    between atoms: _305  and  _308
REMARK  124  A    between atoms: _308  and  _309
REMARK  125  A    between atoms: _314  and  _316
REMARK  126  A    between atoms: _316  and  _317
REMARK  127  A    between atoms: _316  and  _319
REMARK  128  A    between atoms: _319  and  _320
REMARK  129  A    between atoms: _320  and  _321
REMARK  130  A    between atoms: _324  and  _326
REMARK  131  A    between atoms: _326  and  _327
REMARK  132  A    between atoms: _326  and  _329
REMARK  133  A    between atoms: _329  and  _330
REMARK  134  A    between atoms: _330  and  _331
REMARK                            x       y       z     vdW  Elec       q    Type
REMARK                         _______ _______ _______ _____ _____    ______ ____
ROOT
ATOM      1  C   HIS A   1      16.290  -4.795  -5.505  0.00  0.00    +0.239 C 
ATOM      2  N   ILE A   2      16.277  -5.009  -4.190  0.00  0.00    -0.297 N 
ATOM      3  H   ILE A   2      15.855  -5.887  -3.826  0.00  0.00    +0.150 HD
ATOM      4  O   HIS A   1      16.688  -3.763  -6.026  0.00  0.00    -0.274 OA
ENDROOT
BRANCH   1   5
ATOM      5  CA  HIS A   1      15.695  -5.888  -6.377  0.00  0.00    +0.151 C 
BRANCH   5   6
ATOM      6  N   HIS A   1      14.785  -5.180  -7.264  0.00  0.00    -0.238 NA
ATOM      7  H   HIS A   1      15.200  -4.526  -7.958  0.00  0.00    +0.142 HD
ENDBRANCH   5   6
BRANCH   5   8
ATOM      8  CB  HIS A   1      16.815  -6.564  -7.167  0.00  0.00    +0.074 C 
BRANCH   8   9
ATOM      9  CG  HIS A   1      17.937  -7.123  -6.334  0.00  0.00    +0.082 A 
ATOM     10  CD2 HIS A   1      18.156  -8.362  -5.831  0.00  0.00    +0.115 A 
ATOM     11  NE2 HIS A   1      19.392  -8.348  -5.228  0.00  0.00    -0.221 NA
ATOM     12  CE1 HIS A   1      19.907  -7.136  -5.330  0.00  0.00    +0.199 A 
ATOM     13  ND1 HIS A   1      19.063  -6.386  -6.020  0.00  0.00    -0.227 NA
ENDBRANCH   8   9
ENDBRANCH   5   8
ENDBRANCH   1   5
BRANCH   2  14
ATOM     14  CA  ILE A   2      16.835  -4.051  -3.248  0.00  0.00    +0.148 C 
BRANCH  14  15
ATOM     15  C   ILE A   2      17.882  -4.816  -2.457  0.00  0.00    +0.241 C 
ATOM     16  O   ILE A   2      17.560  -5.609  -1.591  0.00  0.00    -0.273 OA
ATOM     17  N   GLY A   3      19.142  -4.557  -2.751  0.00  0.00    -0.296 N 
ATOM     18  H   GLY A   3      19.370  -3.854  -3.482  0.00  0.00    +0.150 HD
BRANCH  17  19
ATOM     19  CA  GLY A   3      20.202  -5.247  -2.061  0.00  0.00    +0.163 C 
BRANCH  19  20
ATOM     20  C   GLY A   3      20.957  -4.349  -1.104  0.00  0.00    +0.229 C 
ATOM     21  O   GLY A   3      21.211  -3.173  -1.395  0.00  0.00    -0.286 OA
ENDBRANCH  19  20
ENDBRANCH  17  19
ENDBRANCH  14  15
BRANCH  14  22
ATOM     22  CB  ILE A   2      15.780  -3.485  -2.307  0.00  0.00    +0.027 C 
ATOM     23  CG2 ILE A   2      16.443  -2.610  -1.240  0.00  0.00    +0.002 C 
BRANCH  22  24
ATOM     24  CG1 ILE A   2      14.772  -2.641  -3.106  0.00  0.00    +0.002 C 
ATOM     25  CD1 ILE A   2      13.640  -2.048  -2.275  0.00  0.00    +0.000 C 
ENDBRANCH  22  24
ENDBRANCH  14  22
ENDBRANCH   2  14
TORSDOF 10
REMARK  Name = ../refined-set-2016/2r0h/2r0h_pocket.pdb
REMARK  134 active torsions:
REMARK  status: ('A' for Active; 'I' for Inactive)
REMARK    1  A    between atoms: _2  and  _3
REMARK    2  A    between atoms: _8  and  _10
REMARK    3  A    between atoms: _10  and  _11
REMARK    4  A    between atoms: _10  and  _13
REMARK    5  A    between atoms: _13  and  _14
REMARK    6  A    between atoms: _17  and  _19
REMARK    7  A    between atoms: _19  and  _20
REMARK    8  A    between atoms: _22  and  _24
REMARK    9  A    between atoms: _24  and  _25
REMARK   10  A    between atoms: _24  and  _27
REMARK   11  A    between atoms: _27  and  _28
REMARK   12  A    between atoms: _31  and  _33
REMARK   13  A    between atoms: _33  and  _34
REMARK   14  A    between atoms: _33  and  _36
REMARK   15  A    between atoms: _36  and  _37
REMARK   16  A    between atoms: _40  and  _42
REMARK   17  A    between atoms: _42  and  _43
REMARK   18  A    between atoms: _42  and  _45
REMARK   19  A    between atoms: _45  and  _46
REMARK   20  A    between atoms: _51  and  _53
REMARK   21  A    between atoms: _53  and  _54
REMARK   22  A    between atoms: _53  and  _56
REMARK   23  A    between atoms: _56  and  _57
REMARK   24  A    between atoms: _60  and  _62
REMARK   25  A    between atoms: _62  and  _63
REMARK   26  A    between atoms: _62  and  _65
REMARK   27  A    between atoms: _65  and  _66
REMARK   28  A    between atoms: _71  and  _73
REMARK   29  A    between atoms: _73  and  _74
REMARK   30  A    between atoms: _73  and  _76
REMARK   31  A    between atoms: _76  and  _77
REMARK   32  A    between atoms: _82  and  _84
REMARK   33  A    between atoms: _84  and  _85
REMARK   34  A    between atoms: _84  and  _87
REMARK   35  A    between atoms: _90  and  _92
REMARK   36  A    between atoms: _92  and  _93
REMARK   37  A    between atoms: _92  and  _95
REMARK   38  A    between atoms: _95  and  _96
REMARK   39  A    between atoms: _101  and  _103
REMARK   40  A    between atoms: _103  and  _104
REMARK   41  A    between atoms: _103  and  _106
REMARK   42  A    between atoms: _106  and  _107
REMARK   43  A    between atoms: _110  and  _112
REMARK   44  A    between atoms: _112  and  _113
REMARK   45  A    between atoms: _115  and  _117
REMARK   46  A    between atoms: _117  and  _118
REMARK   47  A    between atoms: _117  and  _120
REMARK   48  A    between atoms: _120  and  _121
REMARK   49  A    between atoms: _121  and  _122
REMARK   50  A    between atoms: _122  and  _123
REMARK   51  A    between atoms: _132  and  _134
REMARK   52  A    between atoms: _134  and  _135
REMARK   53  A    between atoms: _134  and  _137
REMARK   54  A    between atoms: _137  and  _138
REMARK   55  A    between atoms: _138  and  _139
REMARK   56  A    between atoms: _142  and  _144
REMARK   57  A    between atoms: _144  and  _145
REMARK   58  A    between atoms: _144  and  _147
REMARK   59  A    between atoms: _150  and  _152
REMARK   60  A    between atoms: _152  and  _153
REMARK   61  A    between atoms: _152  and  _155
REMARK   62  A    between atoms: _155  and  _156
REMARK   63  A    between atoms: _162  and  _164
REMARK   64  A    between atoms: _164  and  _165
REMARK   65  A    between atoms: _164  and  _167
REMARK   66  A    between atoms: _167  and  _168
REMARK   67  A    between atoms: _173  and  _175
REMARK   68  A    between atoms: _175  and  _176
REMARK   69  A    between atoms: _175  and  _178
REMARK   70  A    between atoms: _178  and  _179
REMARK   71  A    between atoms: _181  and  _183
REMARK   72  A    between atoms: _183  and  _184
REMARK   73  A    between atoms: _183  and  _186
REMARK   74  A    between atoms: _186  and  _187
REMARK   75  A    between atoms: _190  and  _192
REMARK   76  A    between atoms: _192  and  _193
REMARK   77  A    between atoms: _192  and  _195
REMARK   78  A    between atoms: _195  and  _196
REMARK   79  A    between atoms: _198  and  _200
REMARK   80  A    between atoms: _200  and  _201
REMARK   81  A    between atoms: _200  and  _203
REMARK   82  A    between atoms: _203  and  _204
REMARK   83  A    between atoms: _204  and  _205
REMARK   84  A    between atoms: _205  and  _206
REMARK   85  A    between atoms: _215  and  _217
REMARK   86  A    between atoms: _217  and  _218
REMARK   87  A    between atoms: _221  and  _222
REMARK   88  A    between atoms: _227  and  _229
REMARK   89  A    between atoms: _229  and  _230
REMARK   90  A    between atoms: _229  and  _232
REMARK   91  A    between atoms: _232  and  _233
REMARK   92  A    between atoms: _233  and  _234
REMARK   93  A    between atoms: _237  and  _239
REMARK   94  A    between atoms: _239  and  _240
REMARK   95  A    between atoms: _239  and  _242
REMARK   96  A    between atoms: _242  and  _243
REMARK   97  A    between atoms: _243  and  _244
REMARK   98  A    between atoms: _247  and  _249
REMARK   99  A    between atoms: _249  and  _250
REMARK  100  A    between atoms: _249  and  _252
REMARK  101  A    between atoms: _252  and  _253
REMARK  102  A    between atoms: _253  and  _254
REMARK  103  A    between atoms: _254  and  _255
REMARK  104  A    between atoms: _264  and  _266
REMARK  105  A    between atoms: _266  and  _267
REMARK  106  A    between atoms: _266  and  _269
REMARK  107  A    between atoms: _269  and  _270
REMARK  108  A    between atoms: _270  and  _271
REMARK  109  A    between atoms: _271  and  _272
REMARK  110  A    between atoms: _281  and  _283
REMARK  111  A    between atoms: _283  and  _284
REMARK  112  A    between atoms: _283  and  _286
REMARK  113  A    between atoms: _286  and  _287
REMARK  114  A    between atoms: _287  and  _288
REMARK  115  A    between atoms: _288  and  _289
REMARK  116  A    between atoms: _289  and  _290
REMARK  117  A    between atoms: _294  and  _296
REMARK  118  A    between atoms: _296  and  _297
REMARK  119  A    between atoms: _296  and  _299
REMARK  120  A    between atoms: _299  and  _300
REMARK  121  A    between atoms: _303  and  _305
REMARK  122  A    between atoms: _305  and  _306
REMARK  123  A    between atoms: _305  and  _308
REMARK  124  A    between atoms: _308  and  _309
REMARK  125  A    between atoms: _314  and  _316
REMARK  126  A    between atoms: _316  and  _317
REMARK  127  A    between atoms: _316  and  _319
REMARK  128  A    between atoms: _319  and  _320
REMARK  129  A    between atoms: _320  and  _321
REMARK  130  A    between atoms: _324  and  _326
REMARK  131  A    between atoms: _326  and  _327
REMARK  132  A    between atoms: _326  and  _329
REMARK  133  A    between atoms: _329  and  _330
REMARK  134  A    between atoms: _330  and  _331
REMARK                            x       y       z     vdW  Elec       q    Type
REMARK                         _______ _______ _______ _____ _____    ______ ____
ROOT
ATOM      1  NE  ARG A   1      25.009  -6.485  -3.133  0.00  0.00    -0.265 N 
ATOM      2  HE  ARG A   1      24.006  -6.740  -3.030  0.00  0.00    +0.259 HD
ATOM      3  CZ  ARG A   1      25.564  -6.558  -4.337  0.00  0.00    +0.342 C 
ATOM      4  NH2 ARG A   1      26.857  -6.240  -4.490  0.00  0.00    -0.292 N 
ATOM      5 HH21 ARG A   1      27.419  -5.938  -3.669  0.00  0.00    +0.255 HD
ATOM      6 HH22 ARG A   1      27.298  -6.295  -5.430  0.00  0.00    +0.255 HD
ATOM      7  NH1 ARG A   1      24.839  -6.911  -5.384  0.00  0.00    -0.292 N 
ATOM      8 HH11 ARG A   1      23.830  -7.133  -5.267  0.00  0.00    +0.255 HD
ATOM      9 HH12 ARG A   1      25.278  -6.967  -6.325  0.00  0.00    +0.255 HD
ENDROOT
BRANCH   1  10
ATOM     10  CD  ARG A   1      25.756  -6.057  -1.936  0.00  0.00    +0.174 C 
BRANCH  10  11
ATOM     11  CG  ARG A   1      25.677  -4.552  -1.878  0.00  0.00    +0.045 C 
BRANCH  11  12
ATOM     12  CB  ARG A   1      26.409  -3.924  -0.664  0.00  0.00    +0.029 C 
BRANCH  12  13
ATOM     13  CA  ARG A   1      25.839  -4.287   0.696  0.00  0.00    +0.133 C 
BRANCH  13  14
ATOM     14  N   ARG A   1      24.457  -3.858   0.803  0.00  0.00    -0.239 NA
ATOM     15  H   ARG A   1      24.230  -2.846   0.729  0.00  0.00    +0.142 HD
ENDBRANCH  13  14
BRANCH  13  16
ATOM     16  C   ARG A   1      26.689  -3.657   1.779  0.00  0.00    +0.224 C 
ATOM     17  O   ARG A   1      27.209  -2.565   1.590  0.00  0.00    -0.287 OA
ENDBRANCH  13  16
ENDBRANCH  12  13
ENDBRANCH  11  12
ENDBRANCH  10  11
ENDBRANCH   1  10
TORSDOF 6
REMARK  Name = ../refined-set-2016/2r0h/2r0h_pocket.pdb
REMARK  134 active torsions:
REMARK  status: ('A' for Active; 'I' for Inactive)
REMARK    1  A    between atoms: _2  and  _3
REMARK    2  A    between atoms: _8  and  _10
REMARK    3  A    between atoms: _10  and  _11
REMARK    4  A    between atoms: _10  and  _13
REMARK    5  A    between atoms: _13  and  _14
REMARK    6  A    between atoms: _17  and  _19
REMARK    7  A    between atoms: _19  and  _20
REMARK    8  A    between atoms: _22  and  _24
REMARK    9  A    between atoms: _24  and  _25
REMARK   10  A    between atoms: _24  and  _27
REMARK   11  A    between atoms: _27  and  _28
REMARK   12  A    between atoms: _31  and  _33
REMARK   13  A    between atoms: _33  and  _34
REMARK   14  A    between atoms: _33  and  _36
REMARK   15  A    between atoms: _36  and  _37
REMARK   16  A    between atoms: _40  and  _42
REMARK   17  A    between atoms: _42  and  _43
REMARK   18  A    between atoms: _42  and  _45
REMARK   19  A    between atoms: _45  and  _46
REMARK   20  A    between atoms: _51  and  _53
REMARK   21  A    between atoms: _53  and  _54
REMARK   22  A    between atoms: _53  and  _56
REMARK   23  A    between atoms: _56  and  _57
REMARK   24  A    between atoms: _60  and  _62
REMARK   25  A    between atoms: _62  and  _63
REMARK   26  A    between atoms: _62  and  _65
REMARK   27  A    between atoms: _65  and  _66
REMARK   28  A    between atoms: _71  and  _73
REMARK   29  A    between atoms: _73  and  _74
REMARK   30  A    between atoms: _73  and  _76
REMARK   31  A    between atoms: _76  and  _77
REMARK   32  A    between atoms: _82  and  _84
REMARK   33  A    between atoms: _84  and  _85
REMARK   34  A    between atoms: _84  and  _87
REMARK   35  A    between atoms: _90  and  _92
REMARK   36  A    between atoms: _92  and  _93
REMARK   37  A    between atoms: _92  and  _95
REMARK   38  A    between atoms: _95  and  _96
REMARK   39  A    between atoms: _101  and  _103
REMARK   40  A    between atoms: _103  and  _104
REMARK   41  A    between atoms: _103  and  _106
REMARK   42  A    between atoms: _106  and  _107
REMARK   43  A    between atoms: _110  and  _112
REMARK   44  A    between atoms: _112  and  _113
REMARK   45  A    between atoms: _115  and  _117
REMARK   46  A    between atoms: _117  and  _118
REMARK   47  A    between atoms: _117  and  _120
REMARK   48  A    between atoms: _120  and  _121
REMARK   49  A    between atoms: _121  and  _122
REMARK   50  A    between atoms: _122  and  _123
REMARK   51  A    between atoms: _132  and  _134
REMARK   52  A    between atoms: _134  and  _135
REMARK   53  A    between atoms: _134  and  _137
REMARK   54  A    between atoms: _137  and  _138
REMARK   55  A    between atoms: _138  and  _139
REMARK   56  A    between atoms: _142  and  _144
REMARK   57  A    between atoms: _144  and  _145
REMARK   58  A    between atoms: _144  and  _147
REMARK   59  A    between atoms: _150  and  _152
REMARK   60  A    between atoms: _152  and  _153
REMARK   61  A    between atoms: _152  and  _155
REMARK   62  A    between atoms: _155  and  _156
REMARK   63  A    between atoms: _162  and  _164
REMARK   64  A    between atoms: _164  and  _165
REMARK   65  A    between atoms: _164  and  _167
REMARK   66  A    between atoms: _167  and  _168
REMARK   67  A    between atoms: _173  and  _175
REMARK   68  A    between atoms: _175  and  _176
REMARK   69  A    between atoms: _175  and  _178
REMARK   70  A    between atoms: _178  and  _179
REMARK   71  A    between atoms: _181  and  _183
REMARK   72  A    between atoms: _183  and  _184
REMARK   73  A    between atoms: _183  and  _186
REMARK   74  A    between atoms: _186  and  _187
REMARK   75  A    between atoms: _190  and  _192
REMARK   76  A    between atoms: _192  and  _193
REMARK   77  A    between atoms: _192  and  _195
REMARK   78  A    between atoms: _195  and  _196
REMARK   79  A    between atoms: _198  and  _200
REMARK   80  A    between atoms: _200  and  _201
REMARK   81  A    between atoms: _200  and  _203
REMARK   82  A    between atoms: _203  and  _204
REMARK   83  A    between atoms: _204  and  _205
REMARK   84  A    between atoms: _205  and  _206
REMARK   85  A    between atoms: _215  and  _217
REMARK   86  A    between atoms: _217  and  _218
REMARK   87  A    between atoms: _221  and  _222
REMARK   88  A    between atoms: _227  and  _229
REMARK   89  A    between atoms: _229  and  _230
REMARK   90  A    between atoms: _229  and  _232
REMARK   91  A    between atoms: _232  and  _233
REMARK   92  A    between atoms: _233  and  _234
REMARK   93  A    between atoms: _237  and  _239
REMARK   94  A    between atoms: _239  and  _240
REMARK   95  A    between atoms: _239  and  _242
REMARK   96  A    between atoms: _242  and  _243
REMARK   97  A    between atoms: _243  and  _244
REMARK   98  A    between atoms: _247  and  _249
REMARK   99  A    between atoms: _249  and  _250
REMARK  100  A    between atoms: _249  and  _252
REMARK  101  A    between atoms: _252  and  _253
REMARK  102  A    between atoms: _253  and  _254
REMARK  103  A    between atoms: _254  and  _255
REMARK  104  A    between atoms: _264  and  _266
REMARK  105  A    between atoms: _266  and  _267
REMARK  106  A    between atoms: _266  and  _269
REMARK  107  A    between atoms: _269  and  _270
REMARK  108  A    between atoms: _270  and  _271
REMARK  109  A    between atoms: _271  and  _272
REMARK  110  A    between atoms: _281  and  _283
REMARK  111  A    between atoms: _283  and  _284
REMARK  112  A    between atoms: _283  and  _286
REMARK  113  A    between atoms: _286  and  _287
REMARK  114  A    between atoms: _287  and  _288
REMARK  115  A    between atoms: _288  and  _289
REMARK  116  A    between atoms: _289  and  _290
REMARK  117  A    between atoms: _294  and  _296
REMARK  118  A    between atoms: _296  and  _297
REMARK  119  A    between atoms: _296  and  _299
REMARK  120  A    between atoms: _299  and  _300
REMARK  121  A    between atoms: _303  and  _305
REMARK  122  A    between atoms: _305  and  _306
REMARK  123  A    between atoms: _305  and  _308
REMARK  124  A    between atoms: _308  and  _309
REMARK  125  A    between atoms: _314  and  _316
REMARK  126  A    between atoms: _316  and  _317
REMARK  127  A    between atoms: _316  and  _319
REMARK  128  A    between atoms: _319  and  _320
REMARK  129  A    between atoms: _320  and  _321
REMARK  130  A    between atoms: _324  and  _326
REMARK  131  A    between atoms: _326  and  _327
REMARK  132  A    between atoms: _326  and  _329
REMARK  133  A    between atoms: _329  and  _330
REMARK  134  A    between atoms: _330  and  _331
REMARK                            x       y       z     vdW  Elec       q    Type
REMARK                         _______ _______ _______ _____ _____    ______ ____
ROOT
ATOM      1  CA  GLU A   1      30.451  -1.918  -0.184  0.00  0.00    +0.134 C 
ENDROOT
BRANCH   1   2
ATOM      2  N   GLU A   1      30.297  -2.839   0.924  0.00  0.00    -0.239 NA
ATOM      3  H   GLU A   1      29.345  -3.163   1.191  0.00  0.00    +0.142 HD
ENDBRANCH   1   2
BRANCH   1   4
ATOM      4  C   GLU A   1      29.865  -0.567   0.153  0.00  0.00    +0.224 C 
ATOM      5  O   GLU A   1      30.004   0.352  -0.637  0.00  0.00    -0.287 OA
ENDBRANCH   1   4
BRANCH   1   6
ATOM      6  CB  GLU A   1      29.723  -2.488  -1.421  0.00  0.00    +0.037 C 
BRANCH   6   7
ATOM      7  CG  GLU A   1      30.104  -3.927  -1.775  0.00  0.00    +0.116 C 
BRANCH   7   8
ATOM      8  CD  GLU A   1      29.301  -4.492  -2.959  0.00  0.00    +0.365 C 
ATOM      9  OE2 GLU A   1      29.007  -5.706  -2.967  0.00  0.00    -0.246 OA
ATOM     10  OE1 GLU A   1      29.063  -3.762  -3.938  0.00  0.00    -0.246 OA
ENDBRANCH   7   8
ENDBRANCH   6   7
ENDBRANCH   1   6
TORSDOF 5
REMARK  Name = ../refined-set-2016/2r0h/2r0h_pocket.pdb
REMARK  134 active torsions:
REMARK  status: ('A' for Active; 'I' for Inactive)
REMARK    1  A    between atoms: _2  and  _3
REMARK    2  A    between atoms: _8  and  _10
REMARK    3  A    between atoms: _10  and  _11
REMARK    4  A    between atoms: _10  and  _13
REMARK    5  A    between atoms: _13  and  _14
REMARK    6  A    between atoms: _17  and  _19
REMARK    7  A    between atoms: _19  and  _20
REMARK    8  A    between atoms: _22  and  _24
REMARK    9  A    between atoms: _24  and  _25
REMARK   10  A    between atoms: _24  and  _27
REMARK   11  A    between atoms: _27  and  _28
REMARK   12  A    between atoms: _31  and  _33
REMARK   13  A    between atoms: _33  and  _34
REMARK   14  A    between atoms: _33  and  _36
REMARK   15  A    between atoms: _36  and  _37
REMARK   16  A    between atoms: _40  and  _42
REMARK   17  A    between atoms: _42  and  _43
REMARK   18  A    between atoms: _42  and  _45
REMARK   19  A    between atoms: _45  and  _46
REMARK   20  A    between atoms: _51  and  _53
REMARK   21  A    between atoms: _53  and  _54
REMARK   22  A    between atoms: _53  and  _56
REMARK   23  A    between atoms: _56  and  _57
REMARK   24  A    between atoms: _60  and  _62
REMARK   25  A    between atoms: _62  and  _63
REMARK   26  A    between atoms: _62  and  _65
REMARK   27  A    between atoms: _65  and  _66
REMARK   28  A    between atoms: _71  and  _73
REMARK   29  A    between atoms: _73  and  _74
REMARK   30  A    between atoms: _73  and  _76
REMARK   31  A    between atoms: _76  and  _77
REMARK   32  A    between atoms: _82  and  _84
REMARK   33  A    between atoms: _84  and  _85
REMARK   34  A    between atoms: _84  and  _87
REMARK   35  A    between atoms: _90  and  _92
REMARK   36  A    between atoms: _92  and  _93
REMARK   37  A    between atoms: _92  and  _95
REMARK   38  A    between atoms: _95  and  _96
REMARK   39  A    between atoms: _101  and  _103
REMARK   40  A    between atoms: _103  and  _104
REMARK   41  A    between atoms: _103  and  _106
REMARK   42  A    between atoms: _106  and  _107
REMARK   43  A    between atoms: _110  and  _112
REMARK   44  A    between atoms: _112  and  _113
REMARK   45  A    between atoms: _115  and  _117
REMARK   46  A    between atoms: _117  and  _118
REMARK   47  A    between atoms: _117  and  _120
REMARK   48  A    between atoms: _120  and  _121
REMARK   49  A    between atoms: _121  and  _122
REMARK   50  A    between atoms: _122  and  _123
REMARK   51  A    between atoms: _132  and  _134
REMARK   52  A    between atoms: _134  and  _135
REMARK   53  A    between atoms: _134  and  _137
REMARK   54  A    between atoms: _137  and  _138
REMARK   55  A    between atoms: _138  and  _139
REMARK   56  A    between atoms: _142  and  _144
REMARK   57  A    between atoms: _144  and  _145
REMARK   58  A    between atoms: _144  and  _147
REMARK   59  A    between atoms: _150  and  _152
REMARK   60  A    between atoms: _152  and  _153
REMARK   61  A    between atoms: _152  and  _155
REMARK   62  A    between atoms: _155  and  _156
REMARK   63  A    between atoms: _162  and  _164
REMARK   64  A    between atoms: _164  and  _165
REMARK   65  A    between atoms: _164  and  _167
REMARK   66  A    between atoms: _167  and  _168
REMARK   67  A    between atoms: _173  and  _175
REMARK   68  A    between atoms: _175  and  _176
REMARK   69  A    between atoms: _175  and  _178
REMARK   70  A    between atoms: _178  and  _179
REMARK   71  A    between atoms: _181  and  _183
REMARK   72  A    between atoms: _183  and  _184
REMARK   73  A    between atoms: _183  and  _186
REMARK   74  A    between atoms: _186  and  _187
REMARK   75  A    between atoms: _190  and  _192
REMARK   76  A    between atoms: _192  and  _193
REMARK   77  A    between atoms: _192  and  _195
REMARK   78  A    between atoms: _195  and  _196
REMARK   79  A    between atoms: _198  and  _200
REMARK   80  A    between atoms: _200  and  _201
REMARK   81  A    between atoms: _200  and  _203
REMARK   82  A    between atoms: _203  and  _204
REMARK   83  A    between atoms: _204  and  _205
REMARK   84  A    between atoms: _205  and  _206
REMARK   85  A    between atoms: _215  and  _217
REMARK   86  A    between atoms: _217  and  _218
REMARK   87  A    between atoms: _221  and  _222
REMARK   88  A    between atoms: _227  and  _229
REMARK   89  A    between atoms: _229  and  _230
REMARK   90  A    between atoms: _229  and  _232
REMARK   91  A    between atoms: _232  and  _233
REMARK   92  A    between atoms: _233  and  _234
REMARK   93  A    between atoms: _237  and  _239
REMARK   94  A    between atoms: _239  and  _240
REMARK   95  A    between atoms: _239  and  _242
REMARK   96  A    between atoms: _242  and  _243
REMARK   97  A    between atoms: _243  and  _244
REMARK   98  A    between atoms: _247  and  _249
REMARK   99  A    between atoms: _249  and  _250
REMARK  100  A    between atoms: _249  and  _252
REMARK  101  A    between atoms: _252  and  _253
REMARK  102  A    between atoms: _253  and  _254
REMARK  103  A    between atoms: _254  and  _255
REMARK  104  A    between atoms: _264  and  _266
REMARK  105  A    between atoms: _266  and  _267
REMARK  106  A    between atoms: _266  and  _269
REMARK  107  A    between atoms: _269  and  _270
REMARK  108  A    between atoms: _270  and  _271
REMARK  109  A    between atoms: _271  and  _272
REMARK  110  A    between atoms: _281  and  _283
REMARK  111  A    between atoms: _283  and  _284
REMARK  112  A    between atoms: _283  and  _286
REMARK  113  A    between atoms: _286  and  _287
REMARK  114  A    between atoms: _287  and  _288
REMARK  115  A    between atoms: _288  and  _289
REMARK  116  A    between atoms: _289  and  _290
REMARK  117  A    between atoms: _294  and  _296
REMARK  118  A    between atoms: _296  and  _297
REMARK  119  A    between atoms: _296  and  _299
REMARK  120  A    between atoms: _299  and  _300
REMARK  121  A    between atoms: _303  and  _305
REMARK  122  A    between atoms: _305  and  _306
REMARK  123  A    between atoms: _305  and  _308
REMARK  124  A    between atoms: _308  and  _309
REMARK  125  A    between atoms: _314  and  _316
REMARK  126  A    between atoms: _316  and  _317
REMARK  127  A    between atoms: _316  and  _319
REMARK  128  A    between atoms: _319  and  _320
REMARK  129  A    between atoms: _320  and  _321
REMARK  130  A    between atoms: _324  and  _326
REMARK  131  A    between atoms: _326  and  _327
REMARK  132  A    between atoms: _326  and  _329
REMARK  133  A    between atoms: _329  and  _330
REMARK  134  A    between atoms: _330  and  _331
REMARK                            x       y       z     vdW  Elec       q    Type
REMARK                         _______ _______ _______ _____ _____    ______ ____
ROOT
ATOM      1  CA  ASN A   3      18.136  -3.407 -10.181  0.00  0.00    +0.158 C 
ENDROOT
BRANCH   1   3
ATOM      2  C   PHE A   2      18.881  -1.974  -8.439  0.00  0.00    +0.241 C 
ATOM      3  N   ASN A   3      18.006  -2.899  -8.839  0.00  0.00    -0.297 N 
ATOM      4  H   ASN A   3      17.257  -3.241  -8.204  0.00  0.00    +0.150 HD
ATOM      5  O   PHE A   2      19.742  -1.539  -9.195  0.00  0.00    -0.273 OA
BRANCH   2   6
ATOM      6  CA  PHE A   2      18.770  -1.411  -7.022  0.00  0.00    +0.153 C 
BRANCH   6   9
ATOM      7  C   VAL A   1      20.561  -2.013  -5.487  0.00  0.00    +0.238 C 
ATOM      8  O   VAL A   1      19.852  -2.816  -4.890  0.00  0.00    -0.274 OA
ATOM      9  N   PHE A   2      20.131  -1.250  -6.493  0.00  0.00    -0.297 N 
ATOM     10  H   PHE A   2      20.764  -0.536  -6.906  0.00  0.00    +0.150 HD
BRANCH   7  11
ATOM     11  CA  VAL A   1      21.977  -1.809  -5.029  0.00  0.00    +0.145 C 
BRANCH  11  12
ATOM     12  CB  VAL A   1      22.726  -3.118  -5.337  0.00  0.00    +0.025 C 
ATOM     13  CG2 VAL A   1      24.175  -2.976  -4.926  0.00  0.00    +0.002 C 
ATOM     14  CG1 VAL A   1      22.576  -3.481  -6.872  0.00  0.00    +0.002 C 
ENDBRANCH  11  12
BRANCH  11  15
ATOM     15  N   VAL A   1      21.886  -1.506  -3.617  0.00  0.00    -0.238 NA
ATOM     16  H   VAL A   1      21.437  -2.187  -2.971  0.00  0.00    +0.142 HD
ENDBRANCH  11  15
ENDBRANCH   7  11
ENDBRANCH   6   9
BRANCH   6  17
ATOM     17  CB  PHE A   2      18.055  -0.051  -7.023  0.00  0.00    +0.055 C 
BRANCH  17  18
ATOM     18  CG  PHE A   2      18.029   0.594  -5.675  0.00  0.00    -0.020 A 
ATOM     19  CD2 PHE A   2      17.229   0.055  -4.670  0.00  0.00    -0.004 A 
ATOM     20  CE2 PHE A   2      17.193   0.606  -3.406  0.00  0.00    -0.000 A 
ATOM     21  CZ  PHE A   2      17.856   1.776  -3.155  0.00  0.00    -0.000 A 
ATOM     22  CE1 PHE A   2      18.604   2.375  -4.158  0.00  0.00    -0.000 A 
ATOM     23  CD1 PHE A   2      18.682   1.776  -5.431  0.00  0.00    -0.004 A 
ENDBRANCH  17  18
ENDBRANCH   6  17
ENDBRANCH   2   6
ENDBRANCH   1   3
BRANCH   1  24
ATOM     24  C   ASN A   3      16.851  -4.177 -10.494  0.00  0.00    +0.241 C 
ATOM     25  O   ASN A   3      15.921  -4.192  -9.676  0.00  0.00    -0.273 OA
ATOM     26  N   SER A   4      16.761  -4.671 -11.715  0.00  0.00    -0.295 N 
ATOM     27  H   SER A   4      17.547  -4.498 -12.373  0.00  0.00    +0.150 HD
BRANCH  26  28
ATOM     28  CA  SER A   4      15.611  -5.453 -12.198  0.00  0.00    +0.178 C 
BRANCH  28  29
ATOM     29  C   SER A   4      16.243  -6.665 -12.868  0.00  0.00    +0.243 C 
ATOM     30  N   ILE A   5      15.680  -7.843 -12.644  0.00  0.00    -0.298 N 
ATOM     31  H   ILE A   5      14.837  -7.913 -12.039  0.00  0.00    +0.150 HD
ATOM     32  O   SER A   4      17.253  -6.532 -13.580  0.00  0.00    -0.273 OA
BRANCH  30  33
ATOM     33  CA  ILE A   5      16.241  -9.024 -13.242  0.00  0.00    +0.137 C 
BRANCH  33  34
ATOM     34  C   ILE A   5      15.195  -9.905 -13.914  0.00  0.00    +0.227 C 
ATOM     35  O   ILE A   5      14.399 -10.547 -13.230  0.00  0.00    -0.286 OA
ENDBRANCH  33  34
BRANCH  33  36
ATOM     36  CB  ILE A   5      16.985  -9.926 -12.240  0.00  0.00    +0.026 C 
ATOM     37  CG2 ILE A   5      17.616 -11.111 -12.951  0.00  0.00    +0.002 C 
BRANCH  36  38
ATOM     38  CG1 ILE A   5      18.032  -9.174 -11.401  0.00  0.00    +0.002 C 
ATOM     39  CD1 ILE A   5      17.439  -8.286 -10.377  0.00  0.00    +0.000 C 
ENDBRANCH  36  38
ENDBRANCH  33  36
ENDBRANCH  30  33
ENDBRANCH  28  29
BRANCH  28  40
ATOM     40  CB  SER A   4      14.766  -4.658 -13.204  0.00  0.00    +0.166 C 
BRANCH  40  41
ATOM     41  OG  SER A   4      14.244  -3.494 -12.608  0.00  0.00    -0.380 OA
ATOM     42  H   SER A   4      14.989  -2.923 -12.294  0.00  0.00    +0.211 HD
ENDBRANCH  40  41
ENDBRANCH  28  40
ENDBRANCH  26  28
ENDBRANCH   1  24
BRANCH   1  43
ATOM     43  CB  ASN A   3      19.364  -4.325 -10.211  0.00  0.00    +0.114 C 
BRANCH  43  44
ATOM     44  CG  ASN A   3      19.931  -4.544 -11.614  0.00  0.00    +0.222 C 
ATOM     45  ND2 ASN A   3      21.178  -4.970 -11.631  0.00  0.00    -0.329 N 
ATOM     46 HD21 ASN A   3      21.673  -5.165 -10.737  0.00  0.00    +0.145 HD
ATOM     47 HD22 ASN A   3      21.667  -5.111 -12.538  0.00  0.00    +0.145 HD
ATOM     48  OD1 ASN A   3      19.295  -4.296 -12.657  0.00  0.00    -0.275 OA
ENDBRANCH  43  44
ENDBRANCH   1  43
TORSDOF 19
REMARK  Name = ../refined-set-2016/2r0h/2r0h_pocket.pdb
REMARK  134 active torsions:
REMARK  status: ('A' for Active; 'I' for Inactive)
REMARK    1  A    between atoms: _2  and  _3
REMARK    2  A    between atoms: _8  and  _10
REMARK    3  A    between atoms: _10  and  _11
REMARK    4  A    between atoms: _10  and  _13
REMARK    5  A    between atoms: _13  and  _14
REMARK    6  A    between atoms: _17  and  _19
REMARK    7  A    between atoms: _19  and  _20
REMARK    8  A    between atoms: _22  and  _24
REMARK    9  A    between atoms: _24  and  _25
REMARK   10  A    between atoms: _24  and  _27
REMARK   11  A    between atoms: _27  and  _28
REMARK   12  A    between atoms: _31  and  _33
REMARK   13  A    between atoms: _33  and  _34
REMARK   14  A    between atoms: _33  and  _36
REMARK   15  A    between atoms: _36  and  _37
REMARK   16  A    between atoms: _40  and  _42
REMARK   17  A    between atoms: _42  and  _43
REMARK   18  A    between atoms: _42  and  _45
REMARK   19  A    between atoms: _45  and  _46
REMARK   20  A    between atoms: _51  and  _53
REMARK   21  A    between atoms: _53  and  _54
REMARK   22  A    between atoms: _53  and  _56
REMARK   23  A    between atoms: _56  and  _57
REMARK   24  A    between atoms: _60  and  _62
REMARK   25  A    between atoms: _62  and  _63
REMARK   26  A    between atoms: _62  and  _65
REMARK   27  A    between atoms: _65  and  _66
REMARK   28  A    between atoms: _71  and  _73
REMARK   29  A    between atoms: _73  and  _74
REMARK   30  A    between atoms: _73  and  _76
REMARK   31  A    between atoms: _76  and  _77
REMARK   32  A    between atoms: _82  and  _84
REMARK   33  A    between atoms: _84  and  _85
REMARK   34  A    between atoms: _84  and  _87
REMARK   35  A    between atoms: _90  and  _92
REMARK   36  A    between atoms: _92  and  _93
REMARK   37  A    between atoms: _92  and  _95
REMARK   38  A    between atoms: _95  and  _96
REMARK   39  A    between atoms: _101  and  _103
REMARK   40  A    between atoms: _103  and  _104
REMARK   41  A    between atoms: _103  and  _106
REMARK   42  A    between atoms: _106  and  _107
REMARK   43  A    between atoms: _110  and  _112
REMARK   44  A    between atoms: _112  and  _113
REMARK   45  A    between atoms: _115  and  _117
REMARK   46  A    between atoms: _117  and  _118
REMARK   47  A    between atoms: _117  and  _120
REMARK   48  A    between atoms: _120  and  _121
REMARK   49  A    between atoms: _121  and  _122
REMARK   50  A    between atoms: _122  and  _123
REMARK   51  A    between atoms: _132  and  _134
REMARK   52  A    between atoms: _134  and  _135
REMARK   53  A    between atoms: _134  and  _137
REMARK   54  A    between atoms: _137  and  _138
REMARK   55  A    between atoms: _138  and  _139
REMARK   56  A    between atoms: _142  and  _144
REMARK   57  A    between atoms: _144  and  _145
REMARK   58  A    between atoms: _144  and  _147
REMARK   59  A    between atoms: _150  and  _152
REMARK   60  A    between atoms: _152  and  _153
REMARK   61  A    between atoms: _152  and  _155
REMARK   62  A    between atoms: _155  and  _156
REMARK   63  A    between atoms: _162  and  _164
REMARK   64  A    between atoms: _164  and  _165
REMARK   65  A    between atoms: _164  and  _167
REMARK   66  A    between atoms: _167  and  _168
REMARK   67  A    between atoms: _173  and  _175
REMARK   68  A    between atoms: _175  and  _176
REMARK   69  A    between atoms: _175  and  _178
REMARK   70  A    between atoms: _178  and  _179
REMARK   71  A    between atoms: _181  and  _183
REMARK   72  A    between atoms: _183  and  _184
REMARK   73  A    between atoms: _183  and  _186
REMARK   74  A    between atoms: _186  and  _187
REMARK   75  A    between atoms: _190  and  _192
REMARK   76  A    between atoms: _192  and  _193
REMARK   77  A    between atoms: _192  and  _195
REMARK   78  A    between atoms: _195  and  _196
REMARK   79  A    between atoms: _198  and  _200
REMARK   80  A    between atoms: _200  and  _201
REMARK   81  A    between atoms: _200  and  _203
REMARK   82  A    between atoms: _203  and  _204
REMARK   83  A    between atoms: _204  and  _205
REMARK   84  A    between atoms: _205  and  _206
REMARK   85  A    between atoms: _215  and  _217
REMARK   86  A    between atoms: _217  and  _218
REMARK   87  A    between atoms: _221  and  _222
REMARK   88  A    between atoms: _227  and  _229
REMARK   89  A    between atoms: _229  and  _230
REMARK   90  A    between atoms: _229  and  _232
REMARK   91  A    between atoms: _232  and  _233
REMARK   92  A    between atoms: _233  and  _234
REMARK   93  A    between atoms: _237  and  _239
REMARK   94  A    between atoms: _239  and  _240
REMARK   95  A    between atoms: _239  and  _242
REMARK   96  A    between atoms: _242  and  _243
REMARK   97  A    between atoms: _243  and  _244
REMARK   98  A    between atoms: _247  and  _249
REMARK   99  A    between atoms: _249  and  _250
REMARK  100  A    between atoms: _249  and  _252
REMARK  101  A    between atoms: _252  and  _253
REMARK  102  A    between atoms: _253  and  _254
REMARK  103  A    between atoms: _254  and  _255
REMARK  104  A    between atoms: _264  and  _266
REMARK  105  A    between atoms: _266  and  _267
REMARK  106  A    between atoms: _266  and  _269
REMARK  107  A    between atoms: _269  and  _270
REMARK  108  A    between atoms: _270  and  _271
REMARK  109  A    between atoms: _271  and  _272
REMARK  110  A    between atoms: _281  and  _283
REMARK  111  A    between atoms: _283  and  _284
REMARK  112  A    between atoms: _283  and  _286
REMARK  113  A    between atoms: _286  and  _287
REMARK  114  A    between atoms: _287  and  _288
REMARK  115  A    between atoms: _288  and  _289
REMARK  116  A    between atoms: _289  and  _290
REMARK  117  A    between atoms: _294  and  _296
REMARK  118  A    between atoms: _296  and  _297
REMARK  119  A    between atoms: _296  and  _299
REMARK  120  A    between atoms: _299  and  _300
REMARK  121  A    between atoms: _303  and  _305
REMARK  122  A    between atoms: _305  and  _306
REMARK  123  A    between atoms: _305  and  _308
REMARK  124  A    between atoms: _308  and  _309
REMARK  125  A    between atoms: _314  and  _316
REMARK  126  A    between atoms: _316  and  _317
REMARK  127  A    between atoms: _316  and  _319
REMARK  128  A    between atoms: _319  and  _320
REMARK  129  A    between atoms: _320  and  _321
REMARK  130  A    between atoms: _324  and  _326
REMARK  131  A    between atoms: _326  and  _327
REMARK  132  A    between atoms: _326  and  _329
REMARK  133  A    between atoms: _329  and  _330
REMARK  134  A    between atoms: _330  and  _331
REMARK                            x       y       z     vdW  Elec       q    Type
REMARK                         _______ _______ _______ _____ _____    ______ ____
ROOT
ATOM      1  C   PRO A   4      22.342  -1.778 -13.442  0.00  0.00    +0.241 C 
ATOM      2  N   GLU A   5      23.288  -1.681 -12.507  0.00  0.00    -0.297 N 
ATOM      3  H   GLU A   5      24.286  -1.817 -12.766  0.00  0.00    +0.150 HD
ATOM      4  O   PRO A   4      21.146  -1.661 -13.180  0.00  0.00    -0.273 OA
ENDROOT
BRANCH   1   8
ATOM      5  C   GLY A   3      21.611  -4.181 -15.127  0.00  0.00    +0.246 C 
ATOM      6  O   GLY A   3      22.353  -4.689 -14.294  0.00  0.00    -0.273 OA
ATOM      7  N   PRO A   4      21.734  -2.912 -15.509  0.00  0.00    -0.272 N 
ATOM      8  CA  PRO A   4      22.776  -2.096 -14.883  0.00  0.00    +0.152 C 
ATOM      9  CB  PRO A   4      22.783  -0.827 -15.724  0.00  0.00    +0.031 C 
ATOM     10  CG  PRO A   4      21.400  -0.770 -16.332  0.00  0.00    +0.024 C 
ATOM     11  CD  PRO A   4      20.978  -2.184 -16.539  0.00  0.00    +0.094 C 
BRANCH   5  12
ATOM     12  CA  GLY A   3      20.505  -5.015 -15.739  0.00  0.00    +0.176 C 
BRANCH  12  14
ATOM     13  C   ARG A   2      21.058  -7.313 -15.152  0.00  0.00    +0.241 C 
ATOM     14  N   GLY A   3      20.351  -6.209 -14.928  0.00  0.00    -0.295 N 
ATOM     15  H   GLY A   3      19.665  -6.201 -14.146  0.00  0.00    +0.150 HD
ATOM     16  O   ARG A   2      21.803  -7.444 -16.122  0.00  0.00    -0.273 OA
BRANCH  13  17
ATOM     17  CA  ARG A   2      20.905  -8.438 -14.128  0.00  0.00    +0.149 C 
BRANCH  17  19
ATOM     18  C   SER A   1      20.608 -10.296 -15.650  0.00  0.00    +0.241 C 
ATOM     19  N   ARG A   2      21.271  -9.731 -14.654  0.00  0.00    -0.297 N 
ATOM     20  H   ARG A   2      22.080 -10.234 -14.238  0.00  0.00    +0.150 HD
ATOM     21  O   SER A   1      19.642  -9.754 -16.200  0.00  0.00    -0.274 OA
BRANCH  18  22
ATOM     22  CA  SER A   1      21.123 -11.676 -16.093  0.00  0.00    +0.174 C 
BRANCH  22  23
ATOM     23  N   SER A   1      20.225 -12.383 -16.978  0.00  0.00    -0.236 NA
ATOM     24  H   SER A   1      20.347 -12.336 -18.010  0.00  0.00    +0.142 HD
ENDBRANCH  22  23
BRANCH  22  25
ATOM     25  CB  SER A   1      22.513 -11.625 -16.723  0.00  0.00    +0.163 C 
BRANCH  25  26
ATOM     26  OG  SER A   1      22.439 -11.068 -18.012  0.00  0.00    -0.380 OA
ATOM     27  H   SER A   1      23.345 -11.040 -18.411  0.00  0.00    +0.211 HD
ENDBRANCH  25  26
ENDBRANCH  22  25
ENDBRANCH  18  22
ENDBRANCH  17  19
BRANCH  17  28
ATOM     28  CB  ARG A   2      21.845  -8.093 -12.969  0.00  0.00    +0.033 C 
BRANCH  28  29
ATOM     29  CG  ARG A   2      23.279  -7.958 -13.358  0.00  0.00    +0.045 C 
BRANCH  29  30
ATOM     30  CD  ARG A   2      24.021  -7.474 -12.149  0.00  0.00    +0.174 C 
BRANCH  30  31
ATOM     31  NE  ARG A   2      25.467  -7.290 -12.289  0.00  0.00    -0.265 N 
ATOM     32  HE  ARG A   2      26.088  -8.088 -12.045  0.00  0.00    +0.259 HD
ATOM     33  CZ  ARG A   2      26.031  -6.168 -12.708  0.00  0.00    +0.342 C 
ATOM     34  NH2 ARG A   2      27.350  -6.068 -12.743  0.00  0.00    -0.292 N 
ATOM     35 HH21 ARG A   2      27.940  -6.869 -12.442  0.00  0.00    +0.255 HD
ATOM     36 HH22 ARG A   2      27.796  -5.188 -13.072  0.00  0.00    +0.255 HD
ATOM     37  NH1 ARG A   2      25.280  -5.184 -13.188  0.00  0.00    -0.292 N 
ATOM     38 HH11 ARG A   2      24.247  -5.294 -13.235  0.00  0.00    +0.255 HD
ATOM     39 HH12 ARG A   2      25.725  -4.303 -13.517  0.00  0.00    +0.255 HD
ENDBRANCH  30  31
ENDBRANCH  29  30
ENDBRANCH  28  29
ENDBRANCH  17  28
ENDBRANCH  13  17
ENDBRANCH  12  14
ENDBRANCH   5  12
ENDBRANCH   1   8
BRANCH   2  40
ATOM     40  CA  GLU A   5      22.932  -1.386 -11.125  0.00  0.00    +0.149 C 
BRANCH  40  41
ATOM     41  C   GLU A   5      22.777   0.083 -10.836  0.00  0.00    +0.241 C 
ATOM     42  N   GLU A   6      21.849   0.421  -9.958  0.00  0.00    -0.297 N 
ATOM     43  H   GLU A   6      21.216  -0.308  -9.573  0.00  0.00    +0.150 HD
ATOM     44  O   GLU A   5      23.440   0.904 -11.458  0.00  0.00    -0.273 OA
BRANCH  42  45
ATOM     45  CA  GLU A   6      21.704   1.794  -9.527  0.00  0.00    +0.149 C 
BRANCH  45  46
ATOM     46  C   GLU A   6      22.020   1.782  -8.050  0.00  0.00    +0.241 C 
ATOM     47  O   GLU A   6      21.359   1.097  -7.276  0.00  0.00    -0.273 OA
ATOM     48  N   ARG A   7      23.046   2.521  -7.644  0.00  0.00    -0.298 N 
ATOM     49  H   ARG A   7      23.526   3.151  -8.318  0.00  0.00    +0.150 HD
BRANCH  48  50
ATOM     50  CA  ARG A   7      23.507   2.458  -6.261  0.00  0.00    +0.137 C 
BRANCH  50  51
ATOM     51  C   ARG A   7      23.470   3.794  -5.522  0.00  0.00    +0.227 C 
ATOM     52  O   ARG A   7      23.616   4.854  -6.127  0.00  0.00    -0.286 OA
ENDBRANCH  50  51
BRANCH  50  53
ATOM     53  CB  ARG A   7      24.910   1.852  -6.202  0.00  0.00    +0.031 C 
BRANCH  53  54
ATOM     54  CG  ARG A   7      25.012   0.484  -6.856  0.00  0.00    +0.045 C 
BRANCH  54  55
ATOM     55  CD  ARG A   7      26.452   0.119  -7.174  0.00  0.00    +0.174 C 
BRANCH  55  56
ATOM     56  NE  ARG A   7      27.223  -0.186  -5.974  0.00  0.00    -0.265 N 
ATOM     57  HE  ARG A   7      27.511   0.607  -5.366  0.00  0.00    +0.259 HD
ATOM     58  CZ  ARG A   7      27.581  -1.412  -5.607  0.00  0.00    +0.342 C 
ATOM     59  NH2 ARG A   7      28.282  -1.591  -4.497  0.00  0.00    -0.292 N 
ATOM     60 HH21 ARG A   7      28.551  -0.773  -3.914  0.00  0.00    +0.255 HD
ATOM     61 HH22 ARG A   7      28.563  -2.550  -4.208  0.00  0.00    +0.255 HD
ATOM     62  NH1 ARG A   7      27.247  -2.457  -6.350  0.00  0.00    -0.292 N 
ATOM     63 HH11 ARG A   7      27.530  -3.414  -6.058  0.00  0.00    +0.255 HD
ATOM     64 HH12 ARG A   7      26.702  -2.320  -7.225  0.00  0.00    +0.255 HD
ENDBRANCH  55  56
ENDBRANCH  54  55
ENDBRANCH  53  54
ENDBRANCH  50  53
ENDBRANCH  48  50
ENDBRANCH  45  46
BRANCH  45  65
ATOM     65  CB  GLU A   6      20.294   2.309  -9.792  0.00  0.00    +0.041 C 
BRANCH  65  66
ATOM     66  CG  GLU A   6      19.901   2.262 -11.257  0.00  0.00    +0.116 C 
BRANCH  66  67
ATOM     67  CD  GLU A   6      18.613   3.003 -11.547  0.00  0.00    +0.365 C 
ATOM     68  OE2 GLU A   6      18.228   3.871 -10.740  0.00  0.00    -0.246 OA
ATOM     69  OE1 GLU A   6      17.986   2.710 -12.583  0.00  0.00    -0.246 OA
ENDBRANCH  66  67
ENDBRANCH  65  66
ENDBRANCH  45  65
ENDBRANCH  42  45
ENDBRANCH  40  41
BRANCH  40  70
ATOM     70  CB  GLU A   5      24.021  -1.936 -10.157  0.00  0.00    +0.041 C 
BRANCH  70  71
ATOM     71  CG  GLU A   5      24.142  -3.430 -10.148  0.00  0.00    +0.116 C 
BRANCH  71  72
ATOM     72  CD  GLU A   5      25.215  -3.977  -9.213  0.00  0.00    +0.365 C 
ATOM     73  OE2 GLU A   5      26.154  -3.259  -8.762  0.00  0.00    -0.246 OA
ATOM     74  OE1 GLU A   5      25.080  -5.170  -8.912  0.00  0.00    -0.246 OA
ENDBRANCH  71  72
ENDBRANCH  70  71
ENDBRANCH  40  70
ENDBRANCH   2  40
TORSDOF 29
REMARK  Name = ../refined-set-2016/2r0h/2r0h_pocket.pdb
REMARK  134 active torsions:
REMARK  status: ('A' for Active; 'I' for Inactive)
REMARK    1  A    between atoms: _2  and  _3
REMARK    2  A    between atoms: _8  and  _10
REMARK    3  A    between atoms: _10  and  _11
REMARK    4  A    between atoms: _10  and  _13
REMARK    5  A    between atoms: _13  and  _14
REMARK    6  A    between atoms: _17  and  _19
REMARK    7  A    between atoms: _19  and  _20
REMARK    8  A    between atoms: _22  and  _24
REMARK    9  A    between atoms: _24  and  _25
REMARK   10  A    between atoms: _24  and  _27
REMARK   11  A    between atoms: _27  and  _28
REMARK   12  A    between atoms: _31  and  _33
REMARK   13  A    between atoms: _33  and  _34
REMARK   14  A    between atoms: _33  and  _36
REMARK   15  A    between atoms: _36  and  _37
REMARK   16  A    between atoms: _40  and  _42
REMARK   17  A    between atoms: _42  and  _43
REMARK   18  A    between atoms: _42  and  _45
REMARK   19  A    between atoms: _45  and  _46
REMARK   20  A    between atoms: _51  and  _53
REMARK   21  A    between atoms: _53  and  _54
REMARK   22  A    between atoms: _53  and  _56
REMARK   23  A    between atoms: _56  and  _57
REMARK   24  A    between atoms: _60  and  _62
REMARK   25  A    between atoms: _62  and  _63
REMARK   26  A    between atoms: _62  and  _65
REMARK   27  A    between atoms: _65  and  _66
REMARK   28  A    between atoms: _71  and  _73
REMARK   29  A    between atoms: _73  and  _74
REMARK   30  A    between atoms: _73  and  _76
REMARK   31  A    between atoms: _76  and  _77
REMARK   32  A    between atoms: _82  and  _84
REMARK   33  A    between atoms: _84  and  _85
REMARK   34  A    between atoms: _84  and  _87
REMARK   35  A    between atoms: _90  and  _92
REMARK   36  A    between atoms: _92  and  _93
REMARK   37  A    between atoms: _92  and  _95
REMARK   38  A    between atoms: _95  and  _96
REMARK   39  A    between atoms: _101  and  _103
REMARK   40  A    between atoms: _103  and  _104
REMARK   41  A    between atoms: _103  and  _106
REMARK   42  A    between atoms: _106  and  _107
REMARK   43  A    between atoms: _110  and  _112
REMARK   44  A    between atoms: _112  and  _113
REMARK   45  A    between atoms: _115  and  _117
REMARK   46  A    between atoms: _117  and  _118
REMARK   47  A    between atoms: _117  and  _120
REMARK   48  A    between atoms: _120  and  _121
REMARK   49  A    between atoms: _121  and  _122
REMARK   50  A    between atoms: _122  and  _123
REMARK   51  A    between atoms: _132  and  _134
REMARK   52  A    between atoms: _134  and  _135
REMARK   53  A    between atoms: _134  and  _137
REMARK   54  A    between atoms: _137  and  _138
REMARK   55  A    between atoms: _138  and  _139
REMARK   56  A    between atoms: _142  and  _144
REMARK   57  A    between atoms: _144  and  _145
REMARK   58  A    between atoms: _144  and  _147
REMARK   59  A    between atoms: _150  and  _152
REMARK   60  A    between atoms: _152  and  _153
REMARK   61  A    between atoms: _152  and  _155
REMARK   62  A    between atoms: _155  and  _156
REMARK   63  A    between atoms: _162  and  _164
REMARK   64  A    between atoms: _164  and  _165
REMARK   65  A    between atoms: _164  and  _167
REMARK   66  A    between atoms: _167  and  _168
REMARK   67  A    between atoms: _173  and  _175
REMARK   68  A    between atoms: _175  and  _176
REMARK   69  A    between atoms: _175  and  _178
REMARK   70  A    between atoms: _178  and  _179
REMARK   71  A    between atoms: _181  and  _183
REMARK   72  A    between atoms: _183  and  _184
REMARK   73  A    between atoms: _183  and  _186
REMARK   74  A    between atoms: _186  and  _187
REMARK   75  A    between atoms: _190  and  _192
REMARK   76  A    between atoms: _192  and  _193
REMARK   77  A    between atoms: _192  and  _195
REMARK   78  A    between atoms: _195  and  _196
REMARK   79  A    between atoms: _198  and  _200
REMARK   80  A    between atoms: _200  and  _201
REMARK   81  A    between atoms: _200  and  _203
REMARK   82  A    between atoms: _203  and  _204
REMARK   83  A    between atoms: _204  and  _205
REMARK   84  A    between atoms: _205  and  _206
REMARK   85  A    between atoms: _215  and  _217
REMARK   86  A    between atoms: _217  and  _218
REMARK   87  A    between atoms: _221  and  _222
REMARK   88  A    between atoms: _227  and  _229
REMARK   89  A    between atoms: _229  and  _230
REMARK   90  A    between atoms: _229  and  _232
REMARK   91  A    between atoms: _232  and  _233
REMARK   92  A    between atoms: _233  and  _234
REMARK   93  A    between atoms: _237  and  _239
REMARK   94  A    between atoms: _239  and  _240
REMARK   95  A    between atoms: _239  and  _242
REMARK   96  A    between atoms: _242  and  _243
REMARK   97  A    between atoms: _243  and  _244
REMARK   98  A    between atoms: _247  and  _249
REMARK   99  A    between atoms: _249  and  _250
REMARK  100  A    between atoms: _249  and  _252
REMARK  101  A    between atoms: _252  and  _253
REMARK  102  A    between atoms: _253  and  _254
REMARK  103  A    between atoms: _254  and  _255
REMARK  104  A    between atoms: _264  and  _266
REMARK  105  A    between atoms: _266  and  _267
REMARK  106  A    between atoms: _266  and  _269
REMARK  107  A    between atoms: _269  and  _270
REMARK  108  A    between atoms: _270  and  _271
REMARK  109  A    between atoms: _271  and  _272
REMARK  110  A    between atoms: _281  and  _283
REMARK  111  A    between atoms: _283  and  _284
REMARK  112  A    between atoms: _283  and  _286
REMARK  113  A    between atoms: _286  and  _287
REMARK  114  A    between atoms: _287  and  _288
REMARK  115  A    between atoms: _288  and  _289
REMARK  116  A    between atoms: _289  and  _290
REMARK  117  A    between atoms: _294  and  _296
REMARK  118  A    between atoms: _296  and  _297
REMARK  119  A    between atoms: _296  and  _299
REMARK  120  A    between atoms: _299  and  _300
REMARK  121  A    between atoms: _303  and  _305
REMARK  122  A    between atoms: _305  and  _306
REMARK  123  A    between atoms: _305  and  _308
REMARK  124  A    between atoms: _308  and  _309
REMARK  125  A    between atoms: _314  and  _316
REMARK  126  A    between atoms: _316  and  _317
REMARK  127  A    between atoms: _316  and  _319
REMARK  128  A    between atoms: _319  and  _320
REMARK  129  A    between atoms: _320  and  _321
REMARK  130  A    between atoms: _324  and  _326
REMARK  131  A    between atoms: _326  and  _327
REMARK  132  A    between atoms: _326  and  _329
REMARK  133  A    between atoms: _329  and  _330
REMARK  134  A    between atoms: _330  and  _331
REMARK                            x       y       z     vdW  Elec       q    Type
REMARK                         _______ _______ _______ _____ _____    ______ ____
ROOT
ATOM      1  NE  ARG A   1      16.819  -0.550 -14.540  0.00  0.00    -0.265 N 
ATOM      2  CZ  ARG A   1      18.013  -0.887 -14.091  0.00  0.00    +0.342 C 
ATOM      3  NH2 ARG A   1      18.775   0.020 -13.474  0.00  0.00    -0.292 N 
ATOM      4 HH21 ARG A   1      19.716  -0.246 -13.120  0.00  0.00    +0.255 HD
ATOM      5 HH22 ARG A   1      18.427   0.992 -13.347  0.00  0.00    +0.255 HD
ATOM      6  NH1 ARG A   1      18.424  -2.134 -14.226  0.00  0.00    -0.292 N 
ATOM      7 HH11 ARG A   1      19.363  -2.413 -13.876  0.00  0.00    +0.255 HD
ATOM      8 HH12 ARG A   1      17.809  -2.838 -14.682  0.00  0.00    +0.255 HD
ATOM      9  HE  ARG A   1      16.511   0.436 -14.420  0.00  0.00    +0.259 HD
ENDROOT
BRANCH   1  10
ATOM     10  CD  ARG A   1      15.907  -1.479 -15.194  0.00  0.00    +0.174 C 
BRANCH  10  11
ATOM     11  CG  ARG A   1      14.573  -0.831 -15.466  0.00  0.00    +0.045 C 
BRANCH  11  12
ATOM     12  CB  ARG A   1      13.637  -1.869 -16.024  0.00  0.00    +0.029 C 
BRANCH  12  13
ATOM     13  CA  ARG A   1      12.241  -1.374 -16.348  0.00  0.00    +0.133 C 
BRANCH  13  14
ATOM     14  N   ARG A   1      11.601  -0.860 -15.157  0.00  0.00    -0.239 NA
ATOM     15  H   ARG A   1      11.398  -1.510 -14.371  0.00  0.00    +0.142 HD
ENDBRANCH  13  14
BRANCH  13  16
ATOM     16  C   ARG A   1      11.528  -2.541 -16.966  0.00  0.00    +0.224 C 
ATOM     17  O   ARG A   1      11.647  -2.738 -18.167  0.00  0.00    -0.287 OA
ENDBRANCH  13  16
ENDBRANCH  12  13
ENDBRANCH  11  12
ENDBRANCH  10  11
ENDBRANCH   1  10
TORSDOF 6
REMARK  Name = ../refined-set-2016/2r0h/2r0h_pocket.pdb
REMARK  134 active torsions:
REMARK  status: ('A' for Active; 'I' for Inactive)
REMARK    1  A    between atoms: _2  and  _3
REMARK    2  A    between atoms: _8  and  _10
REMARK    3  A    between atoms: _10  and  _11
REMARK    4  A    between atoms: _10  and  _13
REMARK    5  A    between atoms: _13  and  _14
REMARK    6  A    between atoms: _17  and  _19
REMARK    7  A    between atoms: _19  and  _20
REMARK    8  A    between atoms: _22  and  _24
REMARK    9  A    between atoms: _24  and  _25
REMARK   10  A    between atoms: _24  and  _27
REMARK   11  A    between atoms: _27  and  _28
REMARK   12  A    between atoms: _31  and  _33
REMARK   13  A    between atoms: _33  and  _34
REMARK   14  A    between atoms: _33  and  _36
REMARK   15  A    between atoms: _36  and  _37
REMARK   16  A    between atoms: _40  and  _42
REMARK   17  A    between atoms: _42  and  _43
REMARK   18  A    between atoms: _42  and  _45
REMARK   19  A    between atoms: _45  and  _46
REMARK   20  A    between atoms: _51  and  _53
REMARK   21  A    between atoms: _53  and  _54
REMARK   22  A    between atoms: _53  and  _56
REMARK   23  A    between atoms: _56  and  _57
REMARK   24  A    between atoms: _60  and  _62
REMARK   25  A    between atoms: _62  and  _63
REMARK   26  A    between atoms: _62  and  _65
REMARK   27  A    between atoms: _65  and  _66
REMARK   28  A    between atoms: _71  and  _73
REMARK   29  A    between atoms: _73  and  _74
REMARK   30  A    between atoms: _73  and  _76
REMARK   31  A    between atoms: _76  and  _77
REMARK   32  A    between atoms: _82  and  _84
REMARK   33  A    between atoms: _84  and  _85
REMARK   34  A    between atoms: _84  and  _87
REMARK   35  A    between atoms: _90  and  _92
REMARK   36  A    between atoms: _92  and  _93
REMARK   37  A    between atoms: _92  and  _95
REMARK   38  A    between atoms: _95  and  _96
REMARK   39  A    between atoms: _101  and  _103
REMARK   40  A    between atoms: _103  and  _104
REMARK   41  A    between atoms: _103  and  _106
REMARK   42  A    between atoms: _106  and  _107
REMARK   43  A    between atoms: _110  and  _112
REMARK   44  A    between atoms: _112  and  _113
REMARK   45  A    between atoms: _115  and  _117
REMARK   46  A    between atoms: _117  and  _118
REMARK   47  A    between atoms: _117  and  _120
REMARK   48  A    between atoms: _120  and  _121
REMARK   49  A    between atoms: _121  and  _122
REMARK   50  A    between atoms: _122  and  _123
REMARK   51  A    between atoms: _132  and  _134
REMARK   52  A    between atoms: _134  and  _135
REMARK   53  A    between atoms: _134  and  _137
REMARK   54  A    between atoms: _137  and  _138
REMARK   55  A    between atoms: _138  and  _139
REMARK   56  A    between atoms: _142  and  _144
REMARK   57  A    between atoms: _144  and  _145
REMARK   58  A    between atoms: _144  and  _147
REMARK   59  A    between atoms: _150  and  _152
REMARK   60  A    between atoms: _152  and  _153
REMARK   61  A    between atoms: _152  and  _155
REMARK   62  A    between atoms: _155  and  _156
REMARK   63  A    between atoms: _162  and  _164
REMARK   64  A    between atoms: _164  and  _165
REMARK   65  A    between atoms: _164  and  _167
REMARK   66  A    between atoms: _167  and  _168
REMARK   67  A    between atoms: _173  and  _175
REMARK   68  A    between atoms: _175  and  _176
REMARK   69  A    between atoms: _175  and  _178
REMARK   70  A    between atoms: _178  and  _179
REMARK   71  A    between atoms: _181  and  _183
REMARK   72  A    between atoms: _183  and  _184
REMARK   73  A    between atoms: _183  and  _186
REMARK   74  A    between atoms: _186  and  _187
REMARK   75  A    between atoms: _190  and  _192
REMARK   76  A    between atoms: _192  and  _193
REMARK   77  A    between atoms: _192  and  _195
REMARK   78  A    between atoms: _195  and  _196
REMARK   79  A    between atoms: _198  and  _200
REMARK   80  A    between atoms: _200  and  _201
REMARK   81  A    between atoms: _200  and  _203
REMARK   82  A    between atoms: _203  and  _204
REMARK   83  A    between atoms: _204  and  _205
REMARK   84  A    between atoms: _205  and  _206
REMARK   85  A    between atoms: _215  and  _217
REMARK   86  A    between atoms: _217  and  _218
REMARK   87  A    between atoms: _221  and  _222
REMARK   88  A    between atoms: _227  and  _229
REMARK   89  A    between atoms: _229  and  _230
REMARK   90  A    between atoms: _229  and  _232
REMARK   91  A    between atoms: _232  and  _233
REMARK   92  A    between atoms: _233  and  _234
REMARK   93  A    between atoms: _237  and  _239
REMARK   94  A    between atoms: _239  and  _240
REMARK   95  A    between atoms: _239  and  _242
REMARK   96  A    between atoms: _242  and  _243
REMARK   97  A    between atoms: _243  and  _244
REMARK   98  A    between atoms: _247  and  _249
REMARK   99  A    between atoms: _249  and  _250
REMARK  100  A    between atoms: _249  and  _252
REMARK  101  A    between atoms: _252  and  _253
REMARK  102  A    between atoms: _253  and  _254
REMARK  103  A    between atoms: _254  and  _255
REMARK  104  A    between atoms: _264  and  _266
REMARK  105  A    between atoms: _266  and  _267
REMARK  106  A    between atoms: _266  and  _269
REMARK  107  A    between atoms: _269  and  _270
REMARK  108  A    between atoms: _270  and  _271
REMARK  109  A    between atoms: _271  and  _272
REMARK  110  A    between atoms: _281  and  _283
REMARK  111  A    between atoms: _283  and  _284
REMARK  112  A    between atoms: _283  and  _286
REMARK  113  A    between atoms: _286  and  _287
REMARK  114  A    between atoms: _287  and  _288
REMARK  115  A    between atoms: _288  and  _289
REMARK  116  A    between atoms: _289  and  _290
REMARK  117  A    between atoms: _294  and  _296
REMARK  118  A    between atoms: _296  and  _297
REMARK  119  A    between atoms: _296  and  _299
REMARK  120  A    between atoms: _299  and  _300
REMARK  121  A    between atoms: _303  and  _305
REMARK  122  A    between atoms: _305  and  _306
REMARK  123  A    between atoms: _305  and  _308
REMARK  124  A    between atoms: _308  and  _309
REMARK  125  A    between atoms: _314  and  _316
REMARK  126  A    between atoms: _316  and  _317
REMARK  127  A    between atoms: _316  and  _319
REMARK  128  A    between atoms: _319  and  _320
REMARK  129  A    between atoms: _320  and  _321
REMARK  130  A    between atoms: _324  and  _326
REMARK  131  A    between atoms: _326  and  _327
REMARK  132  A    between atoms: _326  and  _329
REMARK  133  A    between atoms: _329  and  _330
REMARK  134  A    between atoms: _330  and  _331
REMARK                            x       y       z     vdW  Elec       q    Type
REMARK                         _______ _______ _______ _____ _____    ______ ____
ROOT
ATOM      1  C   ILE A   2      21.939 -14.784   0.495  0.00  0.00    +0.241 C 
ATOM      2  N   ASN A   3      23.159 -14.290   0.257  0.00  0.00    -0.297 N 
ATOM      3  H   ASN A   3      23.359 -13.295   0.483  0.00  0.00    +0.150 HD
ATOM      4  O   ILE A   2      21.585 -15.919   0.148  0.00  0.00    -0.273 OA
ENDROOT
BRANCH   2   5
ATOM      5  CA  ASN A   3      24.206 -15.113  -0.309  0.00  0.00    +0.158 C 
BRANCH   5   6
ATOM      6  C   ASN A   3      24.579 -16.225   0.660  0.00  0.00    +0.241 C 
ATOM      7  O   ASN A   3      24.552 -16.044   1.877  0.00  0.00    -0.273 OA
ATOM      8  N   GLU A   4      24.907 -17.373   0.100  0.00  0.00    -0.298 N 
ATOM      9  H   GLU A   4      24.907 -17.442  -0.938  0.00  0.00    +0.150 HD
BRANCH   8  10
ATOM     10  CA  GLU A   4      25.269 -18.547   0.879  0.00  0.00    +0.137 C 
BRANCH  10  11
ATOM     11  C   GLU A   4      26.209 -18.323   2.050  0.00  0.00    +0.227 C 
ATOM     12  O   GLU A   4      27.255 -17.699   1.886  0.00  0.00    -0.286 OA
ENDBRANCH  10  11
BRANCH  10  13
ATOM     13  CB  GLU A   4      25.905 -19.605  -0.001  0.00  0.00    +0.039 C 
BRANCH  13  14
ATOM     14  CG  GLU A   4      26.297 -20.850   0.824  0.00  0.00    +0.116 C 
BRANCH  14  15
ATOM     15  CD  GLU A   4      26.978 -21.920   0.023  0.00  0.00    +0.365 C 
ATOM     16  OE2 GLU A   4      27.363 -22.961   0.637  0.00  0.00    -0.246 OA
ATOM     17  OE1 GLU A   4      27.136 -21.712  -1.205  0.00  0.00    -0.246 OA
ENDBRANCH  14  15
ENDBRANCH  13  14
ENDBRANCH  10  13
ENDBRANCH   8  10
ENDBRANCH   5   6
BRANCH   5  18
ATOM     18  CB  ASN A   3      25.419 -14.296  -0.791  0.00  0.00    +0.114 C 
BRANCH  18  19
ATOM     19  CG  ASN A   3      25.138 -13.535  -2.063  0.00  0.00    +0.222 C 
ATOM     20  ND2 ASN A   3      26.151 -12.869  -2.584  0.00  0.00    -0.329 N 
ATOM     21 HD21 ASN A   3      27.058 -12.823  -2.078  0.00  0.00    +0.145 HD
ATOM     22 HD22 ASN A   3      26.042 -12.390  -3.501  0.00  0.00    +0.145 HD
ATOM     23  OD1 ASN A   3      24.043 -13.619  -2.624  0.00  0.00    -0.275 OA
ENDBRANCH  18  19
ENDBRANCH   5  18
ENDBRANCH   2   5
BRANCH   1  24
ATOM     24  CA  ILE A   2      20.935 -13.823   1.116  0.00  0.00    +0.148 C 
BRANCH  24  27
ATOM     25  C   LYS A   1      18.656 -13.214   0.566  0.00  0.00    +0.238 C 
ATOM     26  O   LYS A   1      18.853 -12.037   0.828  0.00  0.00    -0.274 OA
ATOM     27  N   ILE A   2      19.585 -14.146   0.639  0.00  0.00    -0.297 N 
ATOM     28  H   ILE A   2      19.359 -15.121   0.356  0.00  0.00    +0.150 HD
BRANCH  25  29
ATOM     29  CA  LYS A   1      17.316 -13.692   0.030  0.00  0.00    +0.145 C 
BRANCH  29  30
ATOM     30  N   LYS A   1      16.230 -12.795   0.279  0.00  0.00    -0.238 NA
ATOM     31  H   LYS A   1      16.323 -11.799  -0.004  0.00  0.00    +0.142 HD
ENDBRANCH  29  30
BRANCH  29  32
ATOM     32  CB  LYS A   1      17.493 -13.788  -1.482  0.00  0.00    +0.026 C 
BRANCH  32  33
ATOM     33  CG  LYS A   1      16.276 -14.288  -2.293  0.00  0.00    -0.000 C 
BRANCH  33  34
ATOM     34  CD  LYS A   1      15.885 -15.687  -1.901  0.00  0.00    -0.024 C 
BRANCH  34  35
ATOM     35  CE  LYS A   1      14.791 -16.261  -2.787  0.00  0.00    -0.086 C 
BRANCH  35  36
ATOM     36  NZ  LYS A   1      15.265 -16.437  -4.176  0.00  0.00    +0.380 N 
ATOM     37  HZ1 LYS A   1      16.075 -17.089  -4.184  0.00  0.00    -0.089 HD
ATOM     38  HZ2 LYS A   1      15.555 -15.516  -4.561  0.00  0.00    -0.089 HD
ATOM     39  HZ3 LYS A   1      14.496 -16.830  -4.756  0.00  0.00    -0.089 HD
ENDBRANCH  35  36
ENDBRANCH  34  35
ENDBRANCH  33  34
ENDBRANCH  32  33
ENDBRANCH  29  32
ENDBRANCH  25  29
ENDBRANCH  24  27
BRANCH  24  40
ATOM     40  CB  ILE A   2      21.010 -13.899   2.605  0.00  0.00    +0.027 C 
ATOM     41  CG2 ILE A   2      20.776 -15.359   3.064  0.00  0.00    +0.002 C 
BRANCH  40  42
ATOM     42  CG1 ILE A   2      22.359 -13.345   3.117  0.00  0.00    +0.002 C 
ATOM     43  CD1 ILE A   2      22.351 -13.216   4.636  0.00  0.00    +0.000 C 
ENDBRANCH  40  42
ENDBRANCH  24  40
ENDBRANCH   1  24
TORSDOF 20
REMARK  Name = ../refined-set-2016/2r0h/2r0h_pocket.pdb
REMARK  134 active torsions:
REMARK  status: ('A' for Active; 'I' for Inactive)
REMARK    1  A    between atoms: _2  and  _3
REMARK    2  A    between atoms: _8  and  _10
REMARK    3  A    between atoms: _10  and  _11
REMARK    4  A    between atoms: _10  and  _13
REMARK    5  A    between atoms: _13  and  _14
REMARK    6  A    between atoms: _17  and  _19
REMARK    7  A    between atoms: _19  and  _20
REMARK    8  A    between atoms: _22  and  _24
REMARK    9  A    between atoms: _24  and  _25
REMARK   10  A    between atoms: _24  and  _27
REMARK   11  A    between atoms: _27  and  _28
REMARK   12  A    between atoms: _31  and  _33
REMARK   13  A    between atoms: _33  and  _34
REMARK   14  A    between atoms: _33  and  _36
REMARK   15  A    between atoms: _36  and  _37
REMARK   16  A    between atoms: _40  and  _42
REMARK   17  A    between atoms: _42  and  _43
REMARK   18  A    between atoms: _42  and  _45
REMARK   19  A    between atoms: _45  and  _46
REMARK   20  A    between atoms: _51  and  _53
REMARK   21  A    between atoms: _53  and  _54
REMARK   22  A    between atoms: _53  and  _56
REMARK   23  A    between atoms: _56  and  _57
REMARK   24  A    between atoms: _60  and  _62
REMARK   25  A    between atoms: _62  and  _63
REMARK   26  A    between atoms: _62  and  _65
REMARK   27  A    between atoms: _65  and  _66
REMARK   28  A    between atoms: _71  and  _73
REMARK   29  A    between atoms: _73  and  _74
REMARK   30  A    between atoms: _73  and  _76
REMARK   31  A    between atoms: _76  and  _77
REMARK   32  A    between atoms: _82  and  _84
REMARK   33  A    between atoms: _84  and  _85
REMARK   34  A    between atoms: _84  and  _87
REMARK   35  A    between atoms: _90  and  _92
REMARK   36  A    between atoms: _92  and  _93
REMARK   37  A    between atoms: _92  and  _95
REMARK   38  A    between atoms: _95  and  _96
REMARK   39  A    between atoms: _101  and  _103
REMARK   40  A    between atoms: _103  and  _104
REMARK   41  A    between atoms: _103  and  _106
REMARK   42  A    between atoms: _106  and  _107
REMARK   43  A    between atoms: _110  and  _112
REMARK   44  A    between atoms: _112  and  _113
REMARK   45  A    between atoms: _115  and  _117
REMARK   46  A    between atoms: _117  and  _118
REMARK   47  A    between atoms: _117  and  _120
REMARK   48  A    between atoms: _120  and  _121
REMARK   49  A    between atoms: _121  and  _122
REMARK   50  A    between atoms: _122  and  _123
REMARK   51  A    between atoms: _132  and  _134
REMARK   52  A    between atoms: _134  and  _135
REMARK   53  A    between atoms: _134  and  _137
REMARK   54  A    between atoms: _137  and  _138
REMARK   55  A    between atoms: _138  and  _139
REMARK   56  A    between atoms: _142  and  _144
REMARK   57  A    between atoms: _144  and  _145
REMARK   58  A    between atoms: _144  and  _147
REMARK   59  A    between atoms: _150  and  _152
REMARK   60  A    between atoms: _152  and  _153
REMARK   61  A    between atoms: _152  and  _155
REMARK   62  A    between atoms: _155  and  _156
REMARK   63  A    between atoms: _162  and  _164
REMARK   64  A    between atoms: _164  and  _165
REMARK   65  A    between atoms: _164  and  _167
REMARK   66  A    between atoms: _167  and  _168
REMARK   67  A    between atoms: _173  and  _175
REMARK   68  A    between atoms: _175  and  _176
REMARK   69  A    between atoms: _175  and  _178
REMARK   70  A    between atoms: _178  and  _179
REMARK   71  A    between atoms: _181  and  _183
REMARK   72  A    between atoms: _183  and  _184
REMARK   73  A    between atoms: _183  and  _186
REMARK   74  A    between atoms: _186  and  _187
REMARK   75  A    between atoms: _190  and  _192
REMARK   76  A    between atoms: _192  and  _193
REMARK   77  A    between atoms: _192  and  _195
REMARK   78  A    between atoms: _195  and  _196
REMARK   79  A    between atoms: _198  and  _200
REMARK   80  A    between atoms: _200  and  _201
REMARK   81  A    between atoms: _200  and  _203
REMARK   82  A    between atoms: _203  and  _204
REMARK   83  A    between atoms: _204  and  _205
REMARK   84  A    between atoms: _205  and  _206
REMARK   85  A    between atoms: _215  and  _217
REMARK   86  A    between atoms: _217  and  _218
REMARK   87  A    between atoms: _221  and  _222
REMARK   88  A    between atoms: _227  and  _229
REMARK   89  A    between atoms: _229  and  _230
REMARK   90  A    between atoms: _229  and  _232
REMARK   91  A    between atoms: _232  and  _233
REMARK   92  A    between atoms: _233  and  _234
REMARK   93  A    between atoms: _237  and  _239
REMARK   94  A    between atoms: _239  and  _240
REMARK   95  A    between atoms: _239  and  _242
REMARK   96  A    between atoms: _242  and  _243
REMARK   97  A    between atoms: _243  and  _244
REMARK   98  A    between atoms: _247  and  _249
REMARK   99  A    between atoms: _249  and  _250
REMARK  100  A    between atoms: _249  and  _252
REMARK  101  A    between atoms: _252  and  _253
REMARK  102  A    between atoms: _253  and  _254
REMARK  103  A    between atoms: _254  and  _255
REMARK  104  A    between atoms: _264  and  _266
REMARK  105  A    between atoms: _266  and  _267
REMARK  106  A    between atoms: _266  and  _269
REMARK  107  A    between atoms: _269  and  _270
REMARK  108  A    between atoms: _270  and  _271
REMARK  109  A    between atoms: _271  and  _272
REMARK  110  A    between atoms: _281  and  _283
REMARK  111  A    between atoms: _283  and  _284
REMARK  112  A    between atoms: _283  and  _286
REMARK  113  A    between atoms: _286  and  _287
REMARK  114  A    between atoms: _287  and  _288
REMARK  115  A    between atoms: _288  and  _289
REMARK  116  A    between atoms: _289  and  _290
REMARK  117  A    between atoms: _294  and  _296
REMARK  118  A    between atoms: _296  and  _297
REMARK  119  A    between atoms: _296  and  _299
REMARK  120  A    between atoms: _299  and  _300
REMARK  121  A    between atoms: _303  and  _305
REMARK  122  A    between atoms: _305  and  _306
REMARK  123  A    between atoms: _305  and  _308
REMARK  124  A    between atoms: _308  and  _309
REMARK  125  A    between atoms: _314  and  _316
REMARK  126  A    between atoms: _316  and  _317
REMARK  127  A    between atoms: _316  and  _319
REMARK  128  A    between atoms: _319  and  _320
REMARK  129  A    between atoms: _320  and  _321
REMARK  130  A    between atoms: _324  and  _326
REMARK  131  A    between atoms: _326  and  _327
REMARK  132  A    between atoms: _326  and  _329
REMARK  133  A    between atoms: _329  and  _330
REMARK  134  A    between atoms: _330  and  _331
REMARK                            x       y       z     vdW  Elec       q    Type
REMARK                         _______ _______ _______ _____ _____    ______ ____
ROOT
ATOM      1  CB  GLN A   1      25.923 -14.168   4.410  0.00  0.00    +0.035 C 
ENDROOT
BRANCH   1   2
ATOM      2  CA  GLN A   1      25.992 -15.242   5.496  0.00  0.00    +0.134 C 
BRANCH   2   3
ATOM      3  N   GLN A   1      25.930 -16.518   4.836  0.00  0.00    -0.239 NA
ATOM      4  H   GLN A   1      25.252 -16.663   4.061  0.00  0.00    +0.142 HD
ENDBRANCH   2   3
BRANCH   2   5
ATOM      5  C   GLN A   1      24.827 -15.050   6.472  0.00  0.00    +0.224 C 
ATOM      6  O   GLN A   1      23.921 -15.892   6.547  0.00  0.00    -0.287 OA
ENDBRANCH   2   5
ENDBRANCH   1   2
BRANCH   1   7
ATOM      7  CG  GLN A   1      27.044 -14.311   3.383  0.00  0.00    +0.087 C 
BRANCH   7   8
ATOM      8  CD  GLN A   1      26.972 -13.289   2.264  0.00  0.00    +0.219 C 
ATOM      9  NE2 GLN A   1      25.872 -12.545   2.205  0.00  0.00    -0.329 N 
ATOM     10 HE21 GLN A   1      25.110 -12.687   2.899  0.00  0.00    +0.145 HD
ATOM     11 HE22 GLN A   1      25.773 -11.821   1.465  0.00  0.00    +0.145 HD
ATOM     12  OE1 GLN A   1      27.909 -13.167   1.469  0.00  0.00    -0.275 OA
ENDBRANCH   7   8
ENDBRANCH   1   7
TORSDOF 5
REMARK  Name = ../refined-set-2016/2r0h/2r0h_pocket.pdb
REMARK  134 active torsions:
REMARK  status: ('A' for Active; 'I' for Inactive)
REMARK    1  A    between atoms: _2  and  _3
REMARK    2  A    between atoms: _8  and  _10
REMARK    3  A    between atoms: _10  and  _11
REMARK    4  A    between atoms: _10  and  _13
REMARK    5  A    between atoms: _13  and  _14
REMARK    6  A    between atoms: _17  and  _19
REMARK    7  A    between atoms: _19  and  _20
REMARK    8  A    between atoms: _22  and  _24
REMARK    9  A    between atoms: _24  and  _25
REMARK   10  A    between atoms: _24  and  _27
REMARK   11  A    between atoms: _27  and  _28
REMARK   12  A    between atoms: _31  and  _33
REMARK   13  A    between atoms: _33  and  _34
REMARK   14  A    between atoms: _33  and  _36
REMARK   15  A    between atoms: _36  and  _37
REMARK   16  A    between atoms: _40  and  _42
REMARK   17  A    between atoms: _42  and  _43
REMARK   18  A    between atoms: _42  and  _45
REMARK   19  A    between atoms: _45  and  _46
REMARK   20  A    between atoms: _51  and  _53
REMARK   21  A    between atoms: _53  and  _54
REMARK   22  A    between atoms: _53  and  _56
REMARK   23  A    between atoms: _56  and  _57
REMARK   24  A    between atoms: _60  and  _62
REMARK   25  A    between atoms: _62  and  _63
REMARK   26  A    between atoms: _62  and  _65
REMARK   27  A    between atoms: _65  and  _66
REMARK   28  A    between atoms: _71  and  _73
REMARK   29  A    between atoms: _73  and  _74
REMARK   30  A    between atoms: _73  and  _76
REMARK   31  A    between atoms: _76  and  _77
REMARK   32  A    between atoms: _82  and  _84
REMARK   33  A    between atoms: _84  and  _85
REMARK   34  A    between atoms: _84  and  _87
REMARK   35  A    between atoms: _90  and  _92
REMARK   36  A    between atoms: _92  and  _93
REMARK   37  A    between atoms: _92  and  _95
REMARK   38  A    between atoms: _95  and  _96
REMARK   39  A    between atoms: _101  and  _103
REMARK   40  A    between atoms: _103  and  _104
REMARK   41  A    between atoms: _103  and  _106
REMARK   42  A    between atoms: _106  and  _107
REMARK   43  A    between atoms: _110  and  _112
REMARK   44  A    between atoms: _112  and  _113
REMARK   45  A    between atoms: _115  and  _117
REMARK   46  A    between atoms: _117  and  _118
REMARK   47  A    between atoms: _117  and  _120
REMARK   48  A    between atoms: _120  and  _121
REMARK   49  A    between atoms: _121  and  _122
REMARK   50  A    between atoms: _122  and  _123
REMARK   51  A    between atoms: _132  and  _134
REMARK   52  A    between atoms: _134  and  _135
REMARK   53  A    between atoms: _134  and  _137
REMARK   54  A    between atoms: _137  and  _138
REMARK   55  A    between atoms: _138  and  _139
REMARK   56  A    between atoms: _142  and  _144
REMARK   57  A    between atoms: _144  and  _145
REMARK   58  A    between atoms: _144  and  _147
REMARK   59  A    between atoms: _150  and  _152
REMARK   60  A    between atoms: _152  and  _153
REMARK   61  A    between atoms: _152  and  _155
REMARK   62  A    between atoms: _155  and  _156
REMARK   63  A    between atoms: _162  and  _164
REMARK   64  A    between atoms: _164  and  _165
REMARK   65  A    between atoms: _164  and  _167
REMARK   66  A    between atoms: _167  and  _168
REMARK   67  A    between atoms: _173  and  _175
REMARK   68  A    between atoms: _175  and  _176
REMARK   69  A    between atoms: _175  and  _178
REMARK   70  A    between atoms: _178  and  _179
REMARK   71  A    between atoms: _181  and  _183
REMARK   72  A    between atoms: _183  and  _184
REMARK   73  A    between atoms: _183  and  _186
REMARK   74  A    between atoms: _186  and  _187
REMARK   75  A    between atoms: _190  and  _192
REMARK   76  A    between atoms: _192  and  _193
REMARK   77  A    between atoms: _192  and  _195
REMARK   78  A    between atoms: _195  and  _196
REMARK   79  A    between atoms: _198  and  _200
REMARK   80  A    between atoms: _200  and  _201
REMARK   81  A    between atoms: _200  and  _203
REMARK   82  A    between atoms: _203  and  _204
REMARK   83  A    between atoms: _204  and  _205
REMARK   84  A    between atoms: _205  and  _206
REMARK   85  A    between atoms: _215  and  _217
REMARK   86  A    between atoms: _217  and  _218
REMARK   87  A    between atoms: _221  and  _222
REMARK   88  A    between atoms: _227  and  _229
REMARK   89  A    between atoms: _229  and  _230
REMARK   90  A    between atoms: _229  and  _232
REMARK   91  A    between atoms: _232  and  _233
REMARK   92  A    between atoms: _233  and  _234
REMARK   93  A    between atoms: _237  and  _239
REMARK   94  A    between atoms: _239  and  _240
REMARK   95  A    between atoms: _239  and  _242
REMARK   96  A    between atoms: _242  and  _243
REMARK   97  A    between atoms: _243  and  _244
REMARK   98  A    between atoms: _247  and  _249
REMARK   99  A    between atoms: _249  and  _250
REMARK  100  A    between atoms: _249  and  _252
REMARK  101  A    between atoms: _252  and  _253
REMARK  102  A    between atoms: _253  and  _254
REMARK  103  A    between atoms: _254  and  _255
REMARK  104  A    between atoms: _264  and  _266
REMARK  105  A    between atoms: _266  and  _267
REMARK  106  A    between atoms: _266  and  _269
REMARK  107  A    between atoms: _269  and  _270
REMARK  108  A    between atoms: _270  and  _271
REMARK  109  A    between atoms: _271  and  _272
REMARK  110  A    between atoms: _281  and  _283
REMARK  111  A    between atoms: _283  and  _284
REMARK  112  A    between atoms: _283  and  _286
REMARK  113  A    between atoms: _286  and  _287
REMARK  114  A    between atoms: _287  and  _288
REMARK  115  A    between atoms: _288  and  _289
REMARK  116  A    between atoms: _289  and  _290
REMARK  117  A    between atoms: _294  and  _296
REMARK  118  A    between atoms: _296  and  _297
REMARK  119  A    between atoms: _296  and  _299
REMARK  120  A    between atoms: _299  and  _300
REMARK  121  A    between atoms: _303  and  _305
REMARK  122  A    between atoms: _305  and  _306
REMARK  123  A    between atoms: _305  and  _308
REMARK  124  A    between atoms: _308  and  _309
REMARK  125  A    between atoms: _314  and  _316
REMARK  126  A    between atoms: _316  and  _317
REMARK  127  A    between atoms: _316  and  _319
REMARK  128  A    between atoms: _319  and  _320
REMARK  129  A    between atoms: _320  and  _321
REMARK  130  A    between atoms: _324  and  _326
REMARK  131  A    between atoms: _326  and  _327
REMARK  132  A    between atoms: _326  and  _329
REMARK  133  A    between atoms: _329  and  _330
REMARK  134  A    between atoms: _330  and  _331
REMARK                            x       y       z     vdW  Elec       q    Type
REMARK                         _______ _______ _______ _____ _____    ______ ____
ROOT
ATOM      1  O   HOH     1      22.195  -7.139  -4.059  0.00  0.00    +0.000 OA
ENDROOT
TORSDOF 0
REMARK  Name = ../refined-set-2016/2r0h/2r0h_pocket.pdb
REMARK  134 active torsions:
REMARK  status: ('A' for Active; 'I' for Inactive)
REMARK    1  A    between atoms: _2  and  _3
REMARK    2  A    between atoms: _8  and  _10
REMARK    3  A    between atoms: _10  and  _11
REMARK    4  A    between atoms: _10  and  _13
REMARK    5  A    between atoms: _13  and  _14
REMARK    6  A    between atoms: _17  and  _19
REMARK    7  A    between atoms: _19  and  _20
REMARK    8  A    between atoms: _22  and  _24
REMARK    9  A    between atoms: _24  and  _25
REMARK   10  A    between atoms: _24  and  _27
REMARK   11  A    between atoms: _27  and  _28
REMARK   12  A    between atoms: _31  and  _33
REMARK   13  A    between atoms: _33  and  _34
REMARK   14  A    between atoms: _33  and  _36
REMARK   15  A    between atoms: _36  and  _37
REMARK   16  A    between atoms: _40  and  _42
REMARK   17  A    between atoms: _42  and  _43
REMARK   18  A    between atoms: _42  and  _45
REMARK   19  A    between atoms: _45  and  _46
REMARK   20  A    between atoms: _51  and  _53
REMARK   21  A    between atoms: _53  and  _54
REMARK   22  A    between atoms: _53  and  _56
REMARK   23  A    between atoms: _56  and  _57
REMARK   24  A    between atoms: _60  and  _62
REMARK   25  A    between atoms: _62  and  _63
REMARK   26  A    between atoms: _62  and  _65
REMARK   27  A    between atoms: _65  and  _66
REMARK   28  A    between atoms: _71  and  _73
REMARK   29  A    between atoms: _73  and  _74
REMARK   30  A    between atoms: _73  and  _76
REMARK   31  A    between atoms: _76  and  _77
REMARK   32  A    between atoms: _82  and  _84
REMARK   33  A    between atoms: _84  and  _85
REMARK   34  A    between atoms: _84  and  _87
REMARK   35  A    between atoms: _90  and  _92
REMARK   36  A    between atoms: _92  and  _93
REMARK   37  A    between atoms: _92  and  _95
REMARK   38  A    between atoms: _95  and  _96
REMARK   39  A    between atoms: _101  and  _103
REMARK   40  A    between atoms: _103  and  _104
REMARK   41  A    between atoms: _103  and  _106
REMARK   42  A    between atoms: _106  and  _107
REMARK   43  A    between atoms: _110  and  _112
REMARK   44  A    between atoms: _112  and  _113
REMARK   45  A    between atoms: _115  and  _117
REMARK   46  A    between atoms: _117  and  _118
REMARK   47  A    between atoms: _117  and  _120
REMARK   48  A    between atoms: _120  and  _121
REMARK   49  A    between atoms: _121  and  _122
REMARK   50  A    between atoms: _122  and  _123
REMARK   51  A    between atoms: _132  and  _134
REMARK   52  A    between atoms: _134  and  _135
REMARK   53  A    between atoms: _134  and  _137
REMARK   54  A    between atoms: _137  and  _138
REMARK   55  A    between atoms: _138  and  _139
REMARK   56  A    between atoms: _142  and  _144
REMARK   57  A    between atoms: _144  and  _145
REMARK   58  A    between atoms: _144  and  _147
REMARK   59  A    between atoms: _150  and  _152
REMARK   60  A    between atoms: _152  and  _153
REMARK   61  A    between atoms: _152  and  _155
REMARK   62  A    between atoms: _155  and  _156
REMARK   63  A    between atoms: _162  and  _164
REMARK   64  A    between atoms: _164  and  _165
REMARK   65  A    between atoms: _164  and  _167
REMARK   66  A    between atoms: _167  and  _168
REMARK   67  A    between atoms: _173  and  _175
REMARK   68  A    between atoms: _175  and  _176
REMARK   69  A    between atoms: _175  and  _178
REMARK   70  A    between atoms: _178  and  _179
REMARK   71  A    between atoms: _181  and  _183
REMARK   72  A    between atoms: _183  and  _184
REMARK   73  A    between atoms: _183  and  _186
REMARK   74  A    between atoms: _186  and  _187
REMARK   75  A    between atoms: _190  and  _192
REMARK   76  A    between atoms: _192  and  _193
REMARK   77  A    between atoms: _192  and  _195
REMARK   78  A    between atoms: _195  and  _196
REMARK   79  A    between atoms: _198  and  _200
REMARK   80  A    between atoms: _200  and  _201
REMARK   81  A    between atoms: _200  and  _203
REMARK   82  A    between atoms: _203  and  _204
REMARK   83  A    between atoms: _204  and  _205
REMARK   84  A    between atoms: _205  and  _206
REMARK   85  A    between atoms: _215  and  _217
REMARK   86  A    between atoms: _217  and  _218
REMARK   87  A    between atoms: _221  and  _222
REMARK   88  A    between atoms: _227  and  _229
REMARK   89  A    between atoms: _229  and  _230
REMARK   90  A    between atoms: _229  and  _232
REMARK   91  A    between atoms: _232  and  _233
REMARK   92  A    between atoms: _233  and  _234
REMARK   93  A    between atoms: _237  and  _239
REMARK   94  A    between atoms: _239  and  _240
REMARK   95  A    between atoms: _239  and  _242
REMARK   96  A    between atoms: _242  and  _243
REMARK   97  A    between atoms: _243  and  _244
REMARK   98  A    between atoms: _247  and  _249
REMARK   99  A    between atoms: _249  and  _250
REMARK  100  A    between atoms: _249  and  _252
REMARK  101  A    between atoms: _252  and  _253
REMARK  102  A    between atoms: _253  and  _254
REMARK  103  A    between atoms: _254  and  _255
REMARK  104  A    between atoms: _264  and  _266
REMARK  105  A    between atoms: _266  and  _267
REMARK  106  A    between atoms: _266  and  _269
REMARK  107  A    between atoms: _269  and  _270
REMARK  108  A    between atoms: _270  and  _271
REMARK  109  A    between atoms: _271  and  _272
REMARK  110  A    between atoms: _281  and  _283
REMARK  111  A    between atoms: _283  and  _284
REMARK  112  A    between atoms: _283  and  _286
REMARK  113  A    between atoms: _286  and  _287
REMARK  114  A    between atoms: _287  and  _288
REMARK  115  A    between atoms: _288  and  _289
REMARK  116  A    between atoms: _289  and  _290
REMARK  117  A    between atoms: _294  and  _296
REMARK  118  A    between atoms: _296  and  _297
REMARK  119  A    between atoms: _296  and  _299
REMARK  120  A    between atoms: _299  and  _300
REMARK  121  A    between atoms: _303  and  _305
REMARK  122  A    between atoms: _305  and  _306
REMARK  123  A    between atoms: _305  and  _308
REMARK  124  A    between atoms: _308  and  _309
REMARK  125  A    between atoms: _314  and  _316
REMARK  126  A    between atoms: _316  and  _317
REMARK  127  A    between atoms: _316  and  _319
REMARK  128  A    between atoms: _319  and  _320
REMARK  129  A    between atoms: _320  and  _321
REMARK  130  A    between atoms: _324  and  _326
REMARK  131  A    between atoms: _326  and  _327
REMARK  132  A    between atoms: _326  and  _329
REMARK  133  A    between atoms: _329  and  _330
REMARK  134  A    between atoms: _330  and  _331
REMARK                            x       y       z     vdW  Elec       q    Type
REMARK                         _______ _______ _______ _____ _____    ______ ____
ROOT
ATOM      1  O   HOH     1      18.173 -14.846 -13.581  0.00  0.00    +0.000 OA
ENDROOT
TORSDOF 0
REMARK  Name = ../refined-set-2016/2r0h/2r0h_pocket.pdb
REMARK  134 active torsions:
REMARK  status: ('A' for Active; 'I' for Inactive)
REMARK    1  A    between atoms: _2  and  _3
REMARK    2  A    between atoms: _8  and  _10
REMARK    3  A    between atoms: _10  and  _11
REMARK    4  A    between atoms: _10  and  _13
REMARK    5  A    between atoms: _13  and  _14
REMARK    6  A    between atoms: _17  and  _19
REMARK    7  A    between atoms: _19  and  _20
REMARK    8  A    between atoms: _22  and  _24
REMARK    9  A    between atoms: _24  and  _25
REMARK   10  A    between atoms: _24  and  _27
REMARK   11  A    between atoms: _27  and  _28
REMARK   12  A    between atoms: _31  and  _33
REMARK   13  A    between atoms: _33  and  _34
REMARK   14  A    between atoms: _33  and  _36
REMARK   15  A    between atoms: _36  and  _37
REMARK   16  A    between atoms: _40  and  _42
REMARK   17  A    between atoms: _42  and  _43
REMARK   18  A    between atoms: _42  and  _45
REMARK   19  A    between atoms: _45  and  _46
REMARK   20  A    between atoms: _51  and  _53
REMARK   21  A    between atoms: _53  and  _54
REMARK   22  A    between atoms: _53  and  _56
REMARK   23  A    between atoms: _56  and  _57
REMARK   24  A    between atoms: _60  and  _62
REMARK   25  A    between atoms: _62  and  _63
REMARK   26  A    between atoms: _62  and  _65
REMARK   27  A    between atoms: _65  and  _66
REMARK   28  A    between atoms: _71  and  _73
REMARK   29  A    between atoms: _73  and  _74
REMARK   30  A    between atoms: _73  and  _76
REMARK   31  A    between atoms: _76  and  _77
REMARK   32  A    between atoms: _82  and  _84
REMARK   33  A    between atoms: _84  and  _85
REMARK   34  A    between atoms: _84  and  _87
REMARK   35  A    between atoms: _90  and  _92
REMARK   36  A    between atoms: _92  and  _93
REMARK   37  A    between atoms: _92  and  _95
REMARK   38  A    between atoms: _95  and  _96
REMARK   39  A    between atoms: _101  and  _103
REMARK   40  A    between atoms: _103  and  _104
REMARK   41  A    between atoms: _103  and  _106
REMARK   42  A    between atoms: _106  and  _107
REMARK   43  A    between atoms: _110  and  _112
REMARK   44  A    between atoms: _112  and  _113
REMARK   45  A    between atoms: _115  and  _117
REMARK   46  A    between atoms: _117  and  _118
REMARK   47  A    between atoms: _117  and  _120
REMARK   48  A    between atoms: _120  and  _121
REMARK   49  A    between atoms: _121  and  _122
REMARK   50  A    between atoms: _122  and  _123
REMARK   51  A    between atoms: _132  and  _134
REMARK   52  A    between atoms: _134  and  _135
REMARK   53  A    between atoms: _134  and  _137
REMARK   54  A    between atoms: _137  and  _138
REMARK   55  A    between atoms: _138  and  _139
REMARK   56  A    between atoms: _142  and  _144
REMARK   57  A    between atoms: _144  and  _145
REMARK   58  A    between atoms: _144  and  _147
REMARK   59  A    between atoms: _150  and  _152
REMARK   60  A    between atoms: _152  and  _153
REMARK   61  A    between atoms: _152  and  _155
REMARK   62  A    between atoms: _155  and  _156
REMARK   63  A    between atoms: _162  and  _164
REMARK   64  A    between atoms: _164  and  _165
REMARK   65  A    between atoms: _164  and  _167
REMARK   66  A    between atoms: _167  and  _168
REMARK   67  A    between atoms: _173  and  _175
REMARK   68  A    between atoms: _175  and  _176
REMARK   69  A    between atoms: _175  and  _178
REMARK   70  A    between atoms: _178  and  _179
REMARK   71  A    between atoms: _181  and  _183
REMARK   72  A    between atoms: _183  and  _184
REMARK   73  A    between atoms: _183  and  _186
REMARK   74  A    between atoms: _186  and  _187
REMARK   75  A    between atoms: _190  and  _192
REMARK   76  A    between atoms: _192  and  _193
REMARK   77  A    between atoms: _192  and  _195
REMARK   78  A    between atoms: _195  and  _196
REMARK   79  A    between atoms: _198  and  _200
REMARK   80  A    between atoms: _200  and  _201
REMARK   81  A    between atoms: _200  and  _203
REMARK   82  A    between atoms: _203  and  _204
REMARK   83  A    between atoms: _204  and  _205
REMARK   84  A    between atoms: _205  and  _206
REMARK   85  A    between atoms: _215  and  _217
REMARK   86  A    between atoms: _217  and  _218
REMARK   87  A    between atoms: _221  and  _222
REMARK   88  A    between atoms: _227  and  _229
REMARK   89  A    between atoms: _229  and  _230
REMARK   90  A    between atoms: _229  and  _232
REMARK   91  A    between atoms: _232  and  _233
REMARK   92  A    between atoms: _233  and  _234
REMARK   93  A    between atoms: _237  and  _239
REMARK   94  A    between atoms: _239  and  _240
REMARK   95  A    between atoms: _239  and  _242
REMARK   96  A    between atoms: _242  and  _243
REMARK   97  A    between atoms: _243  and  _244
REMARK   98  A    between atoms: _247  and  _249
REMARK   99  A    between atoms: _249  and  _250
REMARK  100  A    between atoms: _249  and  _252
REMARK  101  A    between atoms: _252  and  _253
REMARK  102  A    between atoms: _253  and  _254
REMARK  103  A    between atoms: _254  and  _255
REMARK  104  A    between atoms: _264  and  _266
REMARK  105  A    between atoms: _266  and  _267
REMARK  106  A    between atoms: _266  and  _269
REMARK  107  A    between atoms: _269  and  _270
REMARK  108  A    between atoms: _270  and  _271
REMARK  109  A    between atoms: _271  and  _272
REMARK  110  A    between atoms: _281  and  _283
REMARK  111  A    between atoms: _283  and  _284
REMARK  112  A    between atoms: _283  and  _286
REMARK  113  A    between atoms: _286  and  _287
REMARK  114  A    between atoms: _287  and  _288
REMARK  115  A    between atoms: _288  and  _289
REMARK  116  A    between atoms: _289  and  _290
REMARK  117  A    between atoms: _294  and  _296
REMARK  118  A    between atoms: _296  and  _297
REMARK  119  A    between atoms: _296  and  _299
REMARK  120  A    between atoms: _299  and  _300
REMARK  121  A    between atoms: _303  and  _305
REMARK  122  A    between atoms: _305  and  _306
REMARK  123  A    between atoms: _305  and  _308
REMARK  124  A    between atoms: _308  and  _309
REMARK  125  A    between atoms: _314  and  _316
REMARK  126  A    between atoms: _316  and  _317
REMARK  127  A    between atoms: _316  and  _319
REMARK  128  A    between atoms: _319  and  _320
REMARK  129  A    between atoms: _320  and  _321
REMARK  130  A    between atoms: _324  and  _326
REMARK  131  A    between atoms: _326  and  _327
REMARK  132  A    between atoms: _326  and  _329
REMARK  133  A    between atoms: _329  and  _330
REMARK  134  A    between atoms: _330  and  _331
REMARK                            x       y       z     vdW  Elec       q    Type
REMARK                         _______ _______ _______ _____ _____    ______ ____
ROOT
ATOM      1  O   HOH     1      29.957  -6.542  -5.696  0.00  0.00    +0.000 OA
ENDROOT
TORSDOF 0
REMARK  Name = ../refined-set-2016/2r0h/2r0h_pocket.pdb
REMARK  134 active torsions:
REMARK  status: ('A' for Active; 'I' for Inactive)
REMARK    1  A    between atoms: _2  and  _3
REMARK    2  A    between atoms: _8  and  _10
REMARK    3  A    between atoms: _10  and  _11
REMARK    4  A    between atoms: _10  and  _13
REMARK    5  A    between atoms: _13  and  _14
REMARK    6  A    between atoms: _17  and  _19
REMARK    7  A    between atoms: _19  and  _20
REMARK    8  A    between atoms: _22  and  _24
REMARK    9  A    between atoms: _24  and  _25
REMARK   10  A    between atoms: _24  and  _27
REMARK   11  A    between atoms: _27  and  _28
REMARK   12  A    between atoms: _31  and  _33
REMARK   13  A    between atoms: _33  and  _34
REMARK   14  A    between atoms: _33  and  _36
REMARK   15  A    between atoms: _36  and  _37
REMARK   16  A    between atoms: _40  and  _42
REMARK   17  A    between atoms: _42  and  _43
REMARK   18  A    between atoms: _42  and  _45
REMARK   19  A    between atoms: _45  and  _46
REMARK   20  A    between atoms: _51  and  _53
REMARK   21  A    between atoms: _53  and  _54
REMARK   22  A    between atoms: _53  and  _56
REMARK   23  A    between atoms: _56  and  _57
REMARK   24  A    between atoms: _60  and  _62
REMARK   25  A    between atoms: _62  and  _63
REMARK   26  A    between atoms: _62  and  _65
REMARK   27  A    between atoms: _65  and  _66
REMARK   28  A    between atoms: _71  and  _73
REMARK   29  A    between atoms: _73  and  _74
REMARK   30  A    between atoms: _73  and  _76
REMARK   31  A    between atoms: _76  and  _77
REMARK   32  A    between atoms: _82  and  _84
REMARK   33  A    between atoms: _84  and  _85
REMARK   34  A    between atoms: _84  and  _87
REMARK   35  A    between atoms: _90  and  _92
REMARK   36  A    between atoms: _92  and  _93
REMARK   37  A    between atoms: _92  and  _95
REMARK   38  A    between atoms: _95  and  _96
REMARK   39  A    between atoms: _101  and  _103
REMARK   40  A    between atoms: _103  and  _104
REMARK   41  A    between atoms: _103  and  _106
REMARK   42  A    between atoms: _106  and  _107
REMARK   43  A    between atoms: _110  and  _112
REMARK   44  A    between atoms: _112  and  _113
REMARK   45  A    between atoms: _115  and  _117
REMARK   46  A    between atoms: _117  and  _118
REMARK   47  A    between atoms: _117  and  _120
REMARK   48  A    between atoms: _120  and  _121
REMARK   49  A    between atoms: _121  and  _122
REMARK   50  A    between atoms: _122  and  _123
REMARK   51  A    between atoms: _132  and  _134
REMARK   52  A    between atoms: _134  and  _135
REMARK   53  A    between atoms: _134  and  _137
REMARK   54  A    between atoms: _137  and  _138
REMARK   55  A    between atoms: _138  and  _139
REMARK   56  A    between atoms: _142  and  _144
REMARK   57  A    between atoms: _144  and  _145
REMARK   58  A    between atoms: _144  and  _147
REMARK   59  A    between atoms: _150  and  _152
REMARK   60  A    between atoms: _152  and  _153
REMARK   61  A    between atoms: _152  and  _155
REMARK   62  A    between atoms: _155  and  _156
REMARK   63  A    between atoms: _162  and  _164
REMARK   64  A    between atoms: _164  and  _165
REMARK   65  A    between atoms: _164  and  _167
REMARK   66  A    between atoms: _167  and  _168
REMARK   67  A    between atoms: _173  and  _175
REMARK   68  A    between atoms: _175  and  _176
REMARK   69  A    between atoms: _175  and  _178
REMARK   70  A    between atoms: _178  and  _179
REMARK   71  A    between atoms: _181  and  _183
REMARK   72  A    between atoms: _183  and  _184
REMARK   73  A    between atoms: _183  and  _186
REMARK   74  A    between atoms: _186  and  _187
REMARK   75  A    between atoms: _190  and  _192
REMARK   76  A    between atoms: _192  and  _193
REMARK   77  A    between atoms: _192  and  _195
REMARK   78  A    between atoms: _195  and  _196
REMARK   79  A    between atoms: _198  and  _200
REMARK   80  A    between atoms: _200  and  _201
REMARK   81  A    between atoms: _200  and  _203
REMARK   82  A    between atoms: _203  and  _204
REMARK   83  A    between atoms: _204  and  _205
REMARK   84  A    between atoms: _205  and  _206
REMARK   85  A    between atoms: _215  and  _217
REMARK   86  A    between atoms: _217  and  _218
REMARK   87  A    between atoms: _221  and  _222
REMARK   88  A    between atoms: _227  and  _229
REMARK   89  A    between atoms: _229  and  _230
REMARK   90  A    between atoms: _229  and  _232
REMARK   91  A    between atoms: _232  and  _233
REMARK   92  A    between atoms: _233  and  _234
REMARK   93  A    between atoms: _237  and  _239
REMARK   94  A    between atoms: _239  and  _240
REMARK   95  A    between atoms: _239  and  _242
REMARK   96  A    between atoms: _242  and  _243
REMARK   97  A    between atoms: _243  and  _244
REMARK   98  A    between atoms: _247  and  _249
REMARK   99  A    between atoms: _249  and  _250
REMARK  100  A    between atoms: _249  and  _252
REMARK  101  A    between atoms: _252  and  _253
REMARK  102  A    between atoms: _253  and  _254
REMARK  103  A    between atoms: _254  and  _255
REMARK  104  A    between atoms: _264  and  _266
REMARK  105  A    between atoms: _266  and  _267
REMARK  106  A    between atoms: _266  and  _269
REMARK  107  A    between atoms: _269  and  _270
REMARK  108  A    between atoms: _270  and  _271
REMARK  109  A    between atoms: _271  and  _272
REMARK  110  A    between atoms: _281  and  _283
REMARK  111  A    between atoms: _283  and  _284
REMARK  112  A    between atoms: _283  and  _286
REMARK  113  A    between atoms: _286  and  _287
REMARK  114  A    between atoms: _287  and  _288
REMARK  115  A    between atoms: _288  and  _289
REMARK  116  A    between atoms: _289  and  _290
REMARK  117  A    between atoms: _294  and  _296
REMARK  118  A    between atoms: _296  and  _297
REMARK  119  A    between atoms: _296  and  _299
REMARK  120  A    between atoms: _299  and  _300
REMARK  121  A    between atoms: _303  and  _305
REMARK  122  A    between atoms: _305  and  _306
REMARK  123  A    between atoms: _305  and  _308
REMARK  124  A    between atoms: _308  and  _309
REMARK  125  A    between atoms: _314  and  _316
REMARK  126  A    between atoms: _316  and  _317
REMARK  127  A    between atoms: _316  and  _319
REMARK  128  A    between atoms: _319  and  _320
REMARK  129  A    between atoms: _320  and  _321
REMARK  130  A    between atoms: _324  and  _326
REMARK  131  A    between atoms: _326  and  _327
REMARK  132  A    between atoms: _326  and  _329
REMARK  133  A    between atoms: _329  and  _330
REMARK  134  A    between atoms: _330  and  _331
REMARK                            x       y       z     vdW  Elec       q    Type
REMARK                         _______ _______ _______ _____ _____    ______ ____
ROOT
ATOM      1  O   HOH     1      19.234 -11.370  -6.844  0.00  0.00    +0.000 OA
ENDROOT
TORSDOF 0
REMARK  Name = ../refined-set-2016/2r0h/2r0h_pocket.pdb
REMARK  134 active torsions:
REMARK  status: ('A' for Active; 'I' for Inactive)
REMARK    1  A    between atoms: _2  and  _3
REMARK    2  A    between atoms: _8  and  _10
REMARK    3  A    between atoms: _10  and  _11
REMARK    4  A    between atoms: _10  and  _13
REMARK    5  A    between atoms: _13  and  _14
REMARK    6  A    between atoms: _17  and  _19
REMARK    7  A    between atoms: _19  and  _20
REMARK    8  A    between atoms: _22  and  _24
REMARK    9  A    between atoms: _24  and  _25
REMARK   10  A    between atoms: _24  and  _27
REMARK   11  A    between atoms: _27  and  _28
REMARK   12  A    between atoms: _31  and  _33
REMARK   13  A    between atoms: _33  and  _34
REMARK   14  A    between atoms: _33  and  _36
REMARK   15  A    between atoms: _36  and  _37
REMARK   16  A    between atoms: _40  and  _42
REMARK   17  A    between atoms: _42  and  _43
REMARK   18  A    between atoms: _42  and  _45
REMARK   19  A    between atoms: _45  and  _46
REMARK   20  A    between atoms: _51  and  _53
REMARK   21  A    between atoms: _53  and  _54
REMARK   22  A    between atoms: _53  and  _56
REMARK   23  A    between atoms: _56  and  _57
REMARK   24  A    between atoms: _60  and  _62
REMARK   25  A    between atoms: _62  and  _63
REMARK   26  A    between atoms: _62  and  _65
REMARK   27  A    between atoms: _65  and  _66
REMARK   28  A    between atoms: _71  and  _73
REMARK   29  A    between atoms: _73  and  _74
REMARK   30  A    between atoms: _73  and  _76
REMARK   31  A    between atoms: _76  and  _77
REMARK   32  A    between atoms: _82  and  _84
REMARK   33  A    between atoms: _84  and  _85
REMARK   34  A    between atoms: _84  and  _87
REMARK   35  A    between atoms: _90  and  _92
REMARK   36  A    between atoms: _92  and  _93
REMARK   37  A    between atoms: _92  and  _95
REMARK   38  A    between atoms: _95  and  _96
REMARK   39  A    between atoms: _101  and  _103
REMARK   40  A    between atoms: _103  and  _104
REMARK   41  A    between atoms: _103  and  _106
REMARK   42  A    between atoms: _106  and  _107
REMARK   43  A    between atoms: _110  and  _112
REMARK   44  A    between atoms: _112  and  _113
REMARK   45  A    between atoms: _115  and  _117
REMARK   46  A    between atoms: _117  and  _118
REMARK   47  A    between atoms: _117  and  _120
REMARK   48  A    between atoms: _120  and  _121
REMARK   49  A    between atoms: _121  and  _122
REMARK   50  A    between atoms: _122  and  _123
REMARK   51  A    between atoms: _132  and  _134
REMARK   52  A    between atoms: _134  and  _135
REMARK   53  A    between atoms: _134  and  _137
REMARK   54  A    between atoms: _137  and  _138
REMARK   55  A    between atoms: _138  and  _139
REMARK   56  A    between atoms: _142  and  _144
REMARK   57  A    between atoms: _144  and  _145
REMARK   58  A    between atoms: _144  and  _147
REMARK   59  A    between atoms: _150  and  _152
REMARK   60  A    between atoms: _152  and  _153
REMARK   61  A    between atoms: _152  and  _155
REMARK   62  A    between atoms: _155  and  _156
REMARK   63  A    between atoms: _162  and  _164
REMARK   64  A    between atoms: _164  and  _165
REMARK   65  A    between atoms: _164  and  _167
REMARK   66  A    between atoms: _167  and  _168
REMARK   67  A    between atoms: _173  and  _175
REMARK   68  A    between atoms: _175  and  _176
REMARK   69  A    between atoms: _175  and  _178
REMARK   70  A    between atoms: _178  and  _179
REMARK   71  A    between atoms: _181  and  _183
REMARK   72  A    between atoms: _183  and  _184
REMARK   73  A    between atoms: _183  and  _186
REMARK   74  A    between atoms: _186  and  _187
REMARK   75  A    between atoms: _190  and  _192
REMARK   76  A    between atoms: _192  and  _193
REMARK   77  A    between atoms: _192  and  _195
REMARK   78  A    between atoms: _195  and  _196
REMARK   79  A    between atoms: _198  and  _200
REMARK   80  A    between atoms: _200  and  _201
REMARK   81  A    between atoms: _200  and  _203
REMARK   82  A    between atoms: _203  and  _204
REMARK   83  A    between atoms: _204  and  _205
REMARK   84  A    between atoms: _205  and  _206
REMARK   85  A    between atoms: _215  and  _217
REMARK   86  A    between atoms: _217  and  _218
REMARK   87  A    between atoms: _221  and  _222
REMARK   88  A    between atoms: _227  and  _229
REMARK   89  A    between atoms: _229  and  _230
REMARK   90  A    between atoms: _229  and  _232
REMARK   91  A    between atoms: _232  and  _233
REMARK   92  A    between atoms: _233  and  _234
REMARK   93  A    between atoms: _237  and  _239
REMARK   94  A    between atoms: _239  and  _240
REMARK   95  A    between atoms: _239  and  _242
REMARK   96  A    between atoms: _242  and  _243
REMARK   97  A    between atoms: _243  and  _244
REMARK   98  A    between atoms: _247  and  _249
REMARK   99  A    between atoms: _249  and  _250
REMARK  100  A    between atoms: _249  and  _252
REMARK  101  A    between atoms: _252  and  _253
REMARK  102  A    between atoms: _253  and  _254
REMARK  103  A    between atoms: _254  and  _255
REMARK  104  A    between atoms: _264  and  _266
REMARK  105  A    between atoms: _266  and  _267
REMARK  106  A    between atoms: _266  and  _269
REMARK  107  A    between atoms: _269  and  _270
REMARK  108  A    between atoms: _270  and  _271
REMARK  109  A    between atoms: _271  and  _272
REMARK  110  A    between atoms: _281  and  _283
REMARK  111  A    between atoms: _283  and  _284
REMARK  112  A    between atoms: _283  and  _286
REMARK  113  A    between atoms: _286  and  _287
REMARK  114  A    between atoms: _287  and  _288
REMARK  115  A    between atoms: _288  and  _289
REMARK  116  A    between atoms: _289  and  _290
REMARK  117  A    between atoms: _294  and  _296
REMARK  118  A    between atoms: _296  and  _297
REMARK  119  A    between atoms: _296  and  _299
REMARK  120  A    between atoms: _299  and  _300
REMARK  121  A    between atoms: _303  and  _305
REMARK  122  A    between atoms: _305  and  _306
REMARK  123  A    between atoms: _305  and  _308
REMARK  124  A    between atoms: _308  and  _309
REMARK  125  A    between atoms: _314  and  _316
REMARK  126  A    between atoms: _316  and  _317
REMARK  127  A    between atoms: _316  and  _319
REMARK  128  A    between atoms: _319  and  _320
REMARK  129  A    between atoms: _320  and  _321
REMARK  130  A    between atoms: _324  and  _326
REMARK  131  A    between atoms: _326  and  _327
REMARK  132  A    between atoms: _326  and  _329
REMARK  133  A    between atoms: _329  and  _330
REMARK  134  A    between atoms: _330  and  _331
REMARK                            x       y       z     vdW  Elec       q    Type
REMARK                         _______ _______ _______ _____ _____    ______ ____
ROOT
ATOM      1  O   HOH     1      26.113 -20.002  -3.615  0.00  0.00    +0.000 OA
ENDROOT
TORSDOF 0
REMARK  Name = ../refined-set-2016/2r0h/2r0h_pocket.pdb
REMARK  134 active torsions:
REMARK  status: ('A' for Active; 'I' for Inactive)
REMARK    1  A    between atoms: _2  and  _3
REMARK    2  A    between atoms: _8  and  _10
REMARK    3  A    between atoms: _10  and  _11
REMARK    4  A    between atoms: _10  and  _13
REMARK    5  A    between atoms: _13  and  _14
REMARK    6  A    between atoms: _17  and  _19
REMARK    7  A    between atoms: _19  and  _20
REMARK    8  A    between atoms: _22  and  _24
REMARK    9  A    between atoms: _24  and  _25
REMARK   10  A    between atoms: _24  and  _27
REMARK   11  A    between atoms: _27  and  _28
REMARK   12  A    between atoms: _31  and  _33
REMARK   13  A    between atoms: _33  and  _34
REMARK   14  A    between atoms: _33  and  _36
REMARK   15  A    between atoms: _36  and  _37
REMARK   16  A    between atoms: _40  and  _42
REMARK   17  A    between atoms: _42  and  _43
REMARK   18  A    between atoms: _42  and  _45
REMARK   19  A    between atoms: _45  and  _46
REMARK   20  A    between atoms: _51  and  _53
REMARK   21  A    between atoms: _53  and  _54
REMARK   22  A    between atoms: _53  and  _56
REMARK   23  A    between atoms: _56  and  _57
REMARK   24  A    between atoms: _60  and  _62
REMARK   25  A    between atoms: _62  and  _63
REMARK   26  A    between atoms: _62  and  _65
REMARK   27  A    between atoms: _65  and  _66
REMARK   28  A    between atoms: _71  and  _73
REMARK   29  A    between atoms: _73  and  _74
REMARK   30  A    between atoms: _73  and  _76
REMARK   31  A    between atoms: _76  and  _77
REMARK   32  A    between atoms: _82  and  _84
REMARK   33  A    between atoms: _84  and  _85
REMARK   34  A    between atoms: _84  and  _87
REMARK   35  A    between atoms: _90  and  _92
REMARK   36  A    between atoms: _92  and  _93
REMARK   37  A    between atoms: _92  and  _95
REMARK   38  A    between atoms: _95  and  _96
REMARK   39  A    between atoms: _101  and  _103
REMARK   40  A    between atoms: _103  and  _104
REMARK   41  A    between atoms: _103  and  _106
REMARK   42  A    between atoms: _106  and  _107
REMARK   43  A    between atoms: _110  and  _112
REMARK   44  A    between atoms: _112  and  _113
REMARK   45  A    between atoms: _115  and  _117
REMARK   46  A    between atoms: _117  and  _118
REMARK   47  A    between atoms: _117  and  _120
REMARK   48  A    between atoms: _120  and  _121
REMARK   49  A    between atoms: _121  and  _122
REMARK   50  A    between atoms: _122  and  _123
REMARK   51  A    between atoms: _132  and  _134
REMARK   52  A    between atoms: _134  and  _135
REMARK   53  A    between atoms: _134  and  _137
REMARK   54  A    between atoms: _137  and  _138
REMARK   55  A    between atoms: _138  and  _139
REMARK   56  A    between atoms: _142  and  _144
REMARK   57  A    between atoms: _144  and  _145
REMARK   58  A    between atoms: _144  and  _147
REMARK   59  A    between atoms: _150  and  _152
REMARK   60  A    between atoms: _152  and  _153
REMARK   61  A    between atoms: _152  and  _155
REMARK   62  A    between atoms: _155  and  _156
REMARK   63  A    between atoms: _162  and  _164
REMARK   64  A    between atoms: _164  and  _165
REMARK   65  A    between atoms: _164  and  _167
REMARK   66  A    between atoms: _167  and  _168
REMARK   67  A    between atoms: _173  and  _175
REMARK   68  A    between atoms: _175  and  _176
REMARK   69  A    between atoms: _175  and  _178
REMARK   70  A    between atoms: _178  and  _179
REMARK   71  A    between atoms: _181  and  _183
REMARK   72  A    between atoms: _183  and  _184
REMARK   73  A    between atoms: _183  and  _186
REMARK   74  A    between atoms: _186  and  _187
REMARK   75  A    between atoms: _190  and  _192
REMARK   76  A    between atoms: _192  and  _193
REMARK   77  A    between atoms: _192  and  _195
REMARK   78  A    between atoms: _195  and  _196
REMARK   79  A    between atoms: _198  and  _200
REMARK   80  A    between atoms: _200  and  _201
REMARK   81  A    between atoms: _200  and  _203
REMARK   82  A    between atoms: _203  and  _204
REMARK   83  A    between atoms: _204  and  _205
REMARK   84  A    between atoms: _205  and  _206
REMARK   85  A    between atoms: _215  and  _217
REMARK   86  A    between atoms: _217  and  _218
REMARK   87  A    between atoms: _221  and  _222
REMARK   88  A    between atoms: _227  and  _229
REMARK   89  A    between atoms: _229  and  _230
REMARK   90  A    between atoms: _229  and  _232
REMARK   91  A    between atoms: _232  and  _233
REMARK   92  A    between atoms: _233  and  _234
REMARK   93  A    between atoms: _237  and  _239
REMARK   94  A    between atoms: _239  and  _240
REMARK   95  A    between atoms: _239  and  _242
REMARK   96  A    between atoms: _242  and  _243
REMARK   97  A    between atoms: _243  and  _244
REMARK   98  A    between atoms: _247  and  _249
REMARK   99  A    between atoms: _249  and  _250
REMARK  100  A    between atoms: _249  and  _252
REMARK  101  A    between atoms: _252  and  _253
REMARK  102  A    between atoms: _253  and  _254
REMARK  103  A    between atoms: _254  and  _255
REMARK  104  A    between atoms: _264  and  _266
REMARK  105  A    between atoms: _266  and  _267
REMARK  106  A    between atoms: _266  and  _269
REMARK  107  A    between atoms: _269  and  _270
REMARK  108  A    between atoms: _270  and  _271
REMARK  109  A    between atoms: _271  and  _272
REMARK  110  A    between atoms: _281  and  _283
REMARK  111  A    between atoms: _283  and  _284
REMARK  112  A    between atoms: _283  and  _286
REMARK  113  A    between atoms: _286  and  _287
REMARK  114  A    between atoms: _287  and  _288
REMARK  115  A    between atoms: _288  and  _289
REMARK  116  A    between atoms: _289  and  _290
REMARK  117  A    between atoms: _294  and  _296
REMARK  118  A    between atoms: _296  and  _297
REMARK  119  A    between atoms: _296  and  _299
REMARK  120  A    between atoms: _299  and  _300
REMARK  121  A    between atoms: _303  and  _305
REMARK  122  A    between atoms: _305  and  _306
REMARK  123  A    between atoms: _305  and  _308
REMARK  124  A    between atoms: _308  and  _309
REMARK  125  A    between atoms: _314  and  _316
REMARK  126  A    between atoms: _316  and  _317
REMARK  127  A    between atoms: _316  and  _319
REMARK  128  A    between atoms: _319  and  _320
REMARK  129  A    between atoms: _320  and  _321
REMARK  130  A    between atoms: _324  and  _326
REMARK  131  A    between atoms: _326  and  _327
REMARK  132  A    between atoms: _326  and  _329
REMARK  133  A    between atoms: _329  and  _330
REMARK  134  A    between atoms: _330  and  _331
REMARK                            x       y       z     vdW  Elec       q    Type
REMARK                         _______ _______ _______ _____ _____    ______ ____
ROOT
ATOM      1  O   HOH     1      26.425  -2.085 -13.472  0.00  0.00    +0.000 OA
ENDROOT
TORSDOF 0
REMARK  Name = ../refined-set-2016/2r0h/2r0h_pocket.pdb
REMARK  134 active torsions:
REMARK  status: ('A' for Active; 'I' for Inactive)
REMARK    1  A    between atoms: _2  and  _3
REMARK    2  A    between atoms: _8  and  _10
REMARK    3  A    between atoms: _10  and  _11
REMARK    4  A    between atoms: _10  and  _13
REMARK    5  A    between atoms: _13  and  _14
REMARK    6  A    between atoms: _17  and  _19
REMARK    7  A    between atoms: _19  and  _20
REMARK    8  A    between atoms: _22  and  _24
REMARK    9  A    between atoms: _24  and  _25
REMARK   10  A    between atoms: _24  and  _27
REMARK   11  A    between atoms: _27  and  _28
REMARK   12  A    between atoms: _31  and  _33
REMARK   13  A    between atoms: _33  and  _34
REMARK   14  A    between atoms: _33  and  _36
REMARK   15  A    between atoms: _36  and  _37
REMARK   16  A    between atoms: _40  and  _42
REMARK   17  A    between atoms: _42  and  _43
REMARK   18  A    between atoms: _42  and  _45
REMARK   19  A    between atoms: _45  and  _46
REMARK   20  A    between atoms: _51  and  _53
REMARK   21  A    between atoms: _53  and  _54
REMARK   22  A    between atoms: _53  and  _56
REMARK   23  A    between atoms: _56  and  _57
REMARK   24  A    between atoms: _60  and  _62
REMARK   25  A    between atoms: _62  and  _63
REMARK   26  A    between atoms: _62  and  _65
REMARK   27  A    between atoms: _65  and  _66
REMARK   28  A    between atoms: _71  and  _73
REMARK   29  A    between atoms: _73  and  _74
REMARK   30  A    between atoms: _73  and  _76
REMARK   31  A    between atoms: _76  and  _77
REMARK   32  A    between atoms: _82  and  _84
REMARK   33  A    between atoms: _84  and  _85
REMARK   34  A    between atoms: _84  and  _87
REMARK   35  A    between atoms: _90  and  _92
REMARK   36  A    between atoms: _92  and  _93
REMARK   37  A    between atoms: _92  and  _95
REMARK   38  A    between atoms: _95  and  _96
REMARK   39  A    between atoms: _101  and  _103
REMARK   40  A    between atoms: _103  and  _104
REMARK   41  A    between atoms: _103  and  _106
REMARK   42  A    between atoms: _106  and  _107
REMARK   43  A    between atoms: _110  and  _112
REMARK   44  A    between atoms: _112  and  _113
REMARK   45  A    between atoms: _115  and  _117
REMARK   46  A    between atoms: _117  and  _118
REMARK   47  A    between atoms: _117  and  _120
REMARK   48  A    between atoms: _120  and  _121
REMARK   49  A    between atoms: _121  and  _122
REMARK   50  A    between atoms: _122  and  _123
REMARK   51  A    between atoms: _132  and  _134
REMARK   52  A    between atoms: _134  and  _135
REMARK   53  A    between atoms: _134  and  _137
REMARK   54  A    between atoms: _137  and  _138
REMARK   55  A    between atoms: _138  and  _139
REMARK   56  A    between atoms: _142  and  _144
REMARK   57  A    between atoms: _144  and  _145
REMARK   58  A    between atoms: _144  and  _147
REMARK   59  A    between atoms: _150  and  _152
REMARK   60  A    between atoms: _152  and  _153
REMARK   61  A    between atoms: _152  and  _155
REMARK   62  A    between atoms: _155  and  _156
REMARK   63  A    between atoms: _162  and  _164
REMARK   64  A    between atoms: _164  and  _165
REMARK   65  A    between atoms: _164  and  _167
REMARK   66  A    between atoms: _167  and  _168
REMARK   67  A    between atoms: _173  and  _175
REMARK   68  A    between atoms: _175  and  _176
REMARK   69  A    between atoms: _175  and  _178
REMARK   70  A    between atoms: _178  and  _179
REMARK   71  A    between atoms: _181  and  _183
REMARK   72  A    between atoms: _183  and  _184
REMARK   73  A    between atoms: _183  and  _186
REMARK   74  A    between atoms: _186  and  _187
REMARK   75  A    between atoms: _190  and  _192
REMARK   76  A    between atoms: _192  and  _193
REMARK   77  A    between atoms: _192  and  _195
REMARK   78  A    between atoms: _195  and  _196
REMARK   79  A    between atoms: _198  and  _200
REMARK   80  A    between atoms: _200  and  _201
REMARK   81  A    between atoms: _200  and  _203
REMARK   82  A    between atoms: _203  and  _204
REMARK   83  A    between atoms: _204  and  _205
REMARK   84  A    between atoms: _205  and  _206
REMARK   85  A    between atoms: _215  and  _217
REMARK   86  A    between atoms: _217  and  _218
REMARK   87  A    between atoms: _221  and  _222
REMARK   88  A    between atoms: _227  and  _229
REMARK   89  A    between atoms: _229  and  _230
REMARK   90  A    between atoms: _229  and  _232
REMARK   91  A    between atoms: _232  and  _233
REMARK   92  A    between atoms: _233  and  _234
REMARK   93  A    between atoms: _237  and  _239
REMARK   94  A    between atoms: _239  and  _240
REMARK   95  A    between atoms: _239  and  _242
REMARK   96  A    between atoms: _242  and  _243
REMARK   97  A    between atoms: _243  and  _244
REMARK   98  A    between atoms: _247  and  _249
REMARK   99  A    between atoms: _249  and  _250
REMARK  100  A    between atoms: _249  and  _252
REMARK  101  A    between atoms: _252  and  _253
REMARK  102  A    between atoms: _253  and  _254
REMARK  103  A    between atoms: _254  and  _255
REMARK  104  A    between atoms: _264  and  _266
REMARK  105  A    between atoms: _266  and  _267
REMARK  106  A    between atoms: _266  and  _269
REMARK  107  A    between atoms: _269  and  _270
REMARK  108  A    between atoms: _270  and  _271
REMARK  109  A    between atoms: _271  and  _272
REMARK  110  A    between atoms: _281  and  _283
REMARK  111  A    between atoms: _283  and  _284
REMARK  112  A    between atoms: _283  and  _286
REMARK  113  A    between atoms: _286  and  _287
REMARK  114  A    between atoms: _287  and  _288
REMARK  115  A    between atoms: _288  and  _289
REMARK  116  A    between atoms: _289  and  _290
REMARK  117  A    between atoms: _294  and  _296
REMARK  118  A    between atoms: _296  and  _297
REMARK  119  A    between atoms: _296  and  _299
REMARK  120  A    between atoms: _299  and  _300
REMARK  121  A    between atoms: _303  and  _305
REMARK  122  A    between atoms: _305  and  _306
REMARK  123  A    between atoms: _305  and  _308
REMARK  124  A    between atoms: _308  and  _309
REMARK  125  A    between atoms: _314  and  _316
REMARK  126  A    between atoms: _316  and  _317
REMARK  127  A    between atoms: _316  and  _319
REMARK  128  A    between atoms: _319  and  _320
REMARK  129  A    between atoms: _320  and  _321
REMARK  130  A    between atoms: _324  and  _326
REMARK  131  A    between atoms: _326  and  _327
REMARK  132  A    between atoms: _326  and  _329
REMARK  133  A    between atoms: _329  and  _330
REMARK  134  A    between atoms: _330  and  _331
REMARK                            x       y       z     vdW  Elec       q    Type
REMARK                         _______ _______ _______ _____ _____    ______ ____
ROOT
ATOM      1  O   HOH     1      21.063 -13.566  -2.463  0.00  0.00    +0.000 OA
ENDROOT
TORSDOF 0
REMARK  Name = ../refined-set-2016/2r0h/2r0h_pocket.pdb
REMARK  134 active torsions:
REMARK  status: ('A' for Active; 'I' for Inactive)
REMARK    1  A    between atoms: _2  and  _3
REMARK    2  A    between atoms: _8  and  _10
REMARK    3  A    between atoms: _10  and  _11
REMARK    4  A    between atoms: _10  and  _13
REMARK    5  A    between atoms: _13  and  _14
REMARK    6  A    between atoms: _17  and  _19
REMARK    7  A    between atoms: _19  and  _20
REMARK    8  A    between atoms: _22  and  _24
REMARK    9  A    between atoms: _24  and  _25
REMARK   10  A    between atoms: _24  and  _27
REMARK   11  A    between atoms: _27  and  _28
REMARK   12  A    between atoms: _31  and  _33
REMARK   13  A    between atoms: _33  and  _34
REMARK   14  A    between atoms: _33  and  _36
REMARK   15  A    between atoms: _36  and  _37
REMARK   16  A    between atoms: _40  and  _42
REMARK   17  A    between atoms: _42  and  _43
REMARK   18  A    between atoms: _42  and  _45
REMARK   19  A    between atoms: _45  and  _46
REMARK   20  A    between atoms: _51  and  _53
REMARK   21  A    between atoms: _53  and  _54
REMARK   22  A    between atoms: _53  and  _56
REMARK   23  A    between atoms: _56  and  _57
REMARK   24  A    between atoms: _60  and  _62
REMARK   25  A    between atoms: _62  and  _63
REMARK   26  A    between atoms: _62  and  _65
REMARK   27  A    between atoms: _65  and  _66
REMARK   28  A    between atoms: _71  and  _73
REMARK   29  A    between atoms: _73  and  _74
REMARK   30  A    between atoms: _73  and  _76
REMARK   31  A    between atoms: _76  and  _77
REMARK   32  A    between atoms: _82  and  _84
REMARK   33  A    between atoms: _84  and  _85
REMARK   34  A    between atoms: _84  and  _87
REMARK   35  A    between atoms: _90  and  _92
REMARK   36  A    between atoms: _92  and  _93
REMARK   37  A    between atoms: _92  and  _95
REMARK   38  A    between atoms: _95  and  _96
REMARK   39  A    between atoms: _101  and  _103
REMARK   40  A    between atoms: _103  and  _104
REMARK   41  A    between atoms: _103  and  _106
REMARK   42  A    between atoms: _106  and  _107
REMARK   43  A    between atoms: _110  and  _112
REMARK   44  A    between atoms: _112  and  _113
REMARK   45  A    between atoms: _115  and  _117
REMARK   46  A    between atoms: _117  and  _118
REMARK   47  A    between atoms: _117  and  _120
REMARK   48  A    between atoms: _120  and  _121
REMARK   49  A    between atoms: _121  and  _122
REMARK   50  A    between atoms: _122  and  _123
REMARK   51  A    between atoms: _132  and  _134
REMARK   52  A    between atoms: _134  and  _135
REMARK   53  A    between atoms: _134  and  _137
REMARK   54  A    between atoms: _137  and  _138
REMARK   55  A    between atoms: _138  and  _139
REMARK   56  A    between atoms: _142  and  _144
REMARK   57  A    between atoms: _144  and  _145
REMARK   58  A    between atoms: _144  and  _147
REMARK   59  A    between atoms: _150  and  _152
REMARK   60  A    between atoms: _152  and  _153
REMARK   61  A    between atoms: _152  and  _155
REMARK   62  A    between atoms: _155  and  _156
REMARK   63  A    between atoms: _162  and  _164
REMARK   64  A    between atoms: _164  and  _165
REMARK   65  A    between atoms: _164  and  _167
REMARK   66  A    between atoms: _167  and  _168
REMARK   67  A    between atoms: _173  and  _175
REMARK   68  A    between atoms: _175  and  _176
REMARK   69  A    between atoms: _175  and  _178
REMARK   70  A    between atoms: _178  and  _179
REMARK   71  A    between atoms: _181  and  _183
REMARK   72  A    between atoms: _183  and  _184
REMARK   73  A    between atoms: _183  and  _186
REMARK   74  A    between atoms: _186  and  _187
REMARK   75  A    between atoms: _190  and  _192
REMARK   76  A    between atoms: _192  and  _193
REMARK   77  A    between atoms: _192  and  _195
REMARK   78  A    between atoms: _195  and  _196
REMARK   79  A    between atoms: _198  and  _200
REMARK   80  A    between atoms: _200  and  _201
REMARK   81  A    between atoms: _200  and  _203
REMARK   82  A    between atoms: _203  and  _204
REMARK   83  A    between atoms: _204  and  _205
REMARK   84  A    between atoms: _205  and  _206
REMARK   85  A    between atoms: _215  and  _217
REMARK   86  A    between atoms: _217  and  _218
REMARK   87  A    between atoms: _221  and  _222
REMARK   88  A    between atoms: _227  and  _229
REMARK   89  A    between atoms: _229  and  _230
REMARK   90  A    between atoms: _229  and  _232
REMARK   91  A    between atoms: _232  and  _233
REMARK   92  A    between atoms: _233  and  _234
REMARK   93  A    between atoms: _237  and  _239
REMARK   94  A    between atoms: _239  and  _240
REMARK   95  A    between atoms: _239  and  _242
REMARK   96  A    between atoms: _242  and  _243
REMARK   97  A    between atoms: _243  and  _244
REMARK   98  A    between atoms: _247  and  _249
REMARK   99  A    between atoms: _249  and  _250
REMARK  100  A    between atoms: _249  and  _252
REMARK  101  A    between atoms: _252  and  _253
REMARK  102  A    between atoms: _253  and  _254
REMARK  103  A    between atoms: _254  and  _255
REMARK  104  A    between atoms: _264  and  _266
REMARK  105  A    between atoms: _266  and  _267
REMARK  106  A    between atoms: _266  and  _269
REMARK  107  A    between atoms: _269  and  _270
REMARK  108  A    between atoms: _270  and  _271
REMARK  109  A    between atoms: _271  and  _272
REMARK  110  A    between atoms: _281  and  _283
REMARK  111  A    between atoms: _283  and  _284
REMARK  112  A    between atoms: _283  and  _286
REMARK  113  A    between atoms: _286  and  _287
REMARK  114  A    between atoms: _287  and  _288
REMARK  115  A    between atoms: _288  and  _289
REMARK  116  A    between atoms: _289  and  _290
REMARK  117  A    between atoms: _294  and  _296
REMARK  118  A    between atoms: _296  and  _297
REMARK  119  A    between atoms: _296  and  _299
REMARK  120  A    between atoms: _299  and  _300
REMARK  121  A    between atoms: _303  and  _305
REMARK  122  A    between atoms: _305  and  _306
REMARK  123  A    between atoms: _305  and  _308
REMARK  124  A    between atoms: _308  and  _309
REMARK  125  A    between atoms: _314  and  _316
REMARK  126  A    between atoms: _316  and  _317
REMARK  127  A    between atoms: _316  and  _319
REMARK  128  A    between atoms: _319  and  _320
REMARK  129  A    between atoms: _320  and  _321
REMARK  130  A    between atoms: _324  and  _326
REMARK  131  A    between atoms: _326  and  _327
REMARK  132  A    between atoms: _326  and  _329
REMARK  133  A    between atoms: _329  and  _330
REMARK  134  A    between atoms: _330  and  _331
REMARK                            x       y       z     vdW  Elec       q    Type
REMARK                         _______ _______ _______ _____ _____    ______ ____
ROOT
ATOM      1  O   HOH     1      23.684 -11.361 -13.975  0.00  0.00    +0.000 OA
ENDROOT
TORSDOF 0
REMARK  Name = ../refined-set-2016/2r0h/2r0h_pocket.pdb
REMARK  134 active torsions:
REMARK  status: ('A' for Active; 'I' for Inactive)
REMARK    1  A    between atoms: _2  and  _3
REMARK    2  A    between atoms: _8  and  _10
REMARK    3  A    between atoms: _10  and  _11
REMARK    4  A    between atoms: _10  and  _13
REMARK    5  A    between atoms: _13  and  _14
REMARK    6  A    between atoms: _17  and  _19
REMARK    7  A    between atoms: _19  and  _20
REMARK    8  A    between atoms: _22  and  _24
REMARK    9  A    between atoms: _24  and  _25
REMARK   10  A    between atoms: _24  and  _27
REMARK   11  A    between atoms: _27  and  _28
REMARK   12  A    between atoms: _31  and  _33
REMARK   13  A    between atoms: _33  and  _34
REMARK   14  A    between atoms: _33  and  _36
REMARK   15  A    between atoms: _36  and  _37
REMARK   16  A    between atoms: _40  and  _42
REMARK   17  A    between atoms: _42  and  _43
REMARK   18  A    between atoms: _42  and  _45
REMARK   19  A    between atoms: _45  and  _46
REMARK   20  A    between atoms: _51  and  _53
REMARK   21  A    between atoms: _53  and  _54
REMARK   22  A    between atoms: _53  and  _56
REMARK   23  A    between atoms: _56  and  _57
REMARK   24  A    between atoms: _60  and  _62
REMARK   25  A    between atoms: _62  and  _63
REMARK   26  A    between atoms: _62  and  _65
REMARK   27  A    between atoms: _65  and  _66
REMARK   28  A    between atoms: _71  and  _73
REMARK   29  A    between atoms: _73  and  _74
REMARK   30  A    between atoms: _73  and  _76
REMARK   31  A    between atoms: _76  and  _77
REMARK   32  A    between atoms: _82  and  _84
REMARK   33  A    between atoms: _84  and  _85
REMARK   34  A    between atoms: _84  and  _87
REMARK   35  A    between atoms: _90  and  _92
REMARK   36  A    between atoms: _92  and  _93
REMARK   37  A    between atoms: _92  and  _95
REMARK   38  A    between atoms: _95  and  _96
REMARK   39  A    between atoms: _101  and  _103
REMARK   40  A    between atoms: _103  and  _104
REMARK   41  A    between atoms: _103  and  _106
REMARK   42  A    between atoms: _106  and  _107
REMARK   43  A    between atoms: _110  and  _112
REMARK   44  A    between atoms: _112  and  _113
REMARK   45  A    between atoms: _115  and  _117
REMARK   46  A    between atoms: _117  and  _118
REMARK   47  A    between atoms: _117  and  _120
REMARK   48  A    between atoms: _120  and  _121
REMARK   49  A    between atoms: _121  and  _122
REMARK   50  A    between atoms: _122  and  _123
REMARK   51  A    between atoms: _132  and  _134
REMARK   52  A    between atoms: _134  and  _135
REMARK   53  A    between atoms: _134  and  _137
REMARK   54  A    between atoms: _137  and  _138
REMARK   55  A    between atoms: _138  and  _139
REMARK   56  A    between atoms: _142  and  _144
REMARK   57  A    between atoms: _144  and  _145
REMARK   58  A    between atoms: _144  and  _147
REMARK   59  A    between atoms: _150  and  _152
REMARK   60  A    between atoms: _152  and  _153
REMARK   61  A    between atoms: _152  and  _155
REMARK   62  A    between atoms: _155  and  _156
REMARK   63  A    between atoms: _162  and  _164
REMARK   64  A    between atoms: _164  and  _165
REMARK   65  A    between atoms: _164  and  _167
REMARK   66  A    between atoms: _167  and  _168
REMARK   67  A    between atoms: _173  and  _175
REMARK   68  A    between atoms: _175  and  _176
REMARK   69  A    between atoms: _175  and  _178
REMARK   70  A    between atoms: _178  and  _179
REMARK   71  A    between atoms: _181  and  _183
REMARK   72  A    between atoms: _183  and  _184
REMARK   73  A    between atoms: _183  and  _186
REMARK   74  A    between atoms: _186  and  _187
REMARK   75  A    between atoms: _190  and  _192
REMARK   76  A    between atoms: _192  and  _193
REMARK   77  A    between atoms: _192  and  _195
REMARK   78  A    between atoms: _195  and  _196
REMARK   79  A    between atoms: _198  and  _200
REMARK   80  A    between atoms: _200  and  _201
REMARK   81  A    between atoms: _200  and  _203
REMARK   82  A    between atoms: _203  and  _204
REMARK   83  A    between atoms: _204  and  _205
REMARK   84  A    between atoms: _205  and  _206
REMARK   85  A    between atoms: _215  and  _217
REMARK   86  A    between atoms: _217  and  _218
REMARK   87  A    between atoms: _221  and  _222
REMARK   88  A    between atoms: _227  and  _229
REMARK   89  A    between atoms: _229  and  _230
REMARK   90  A    between atoms: _229  and  _232
REMARK   91  A    between atoms: _232  and  _233
REMARK   92  A    between atoms: _233  and  _234
REMARK   93  A    between atoms: _237  and  _239
REMARK   94  A    between atoms: _239  and  _240
REMARK   95  A    between atoms: _239  and  _242
REMARK   96  A    between atoms: _242  and  _243
REMARK   97  A    between atoms: _243  and  _244
REMARK   98  A    between atoms: _247  and  _249
REMARK   99  A    between atoms: _249  and  _250
REMARK  100  A    between atoms: _249  and  _252
REMARK  101  A    between atoms: _252  and  _253
REMARK  102  A    between atoms: _253  and  _254
REMARK  103  A    between atoms: _254  and  _255
REMARK  104  A    between atoms: _264  and  _266
REMARK  105  A    between atoms: _266  and  _267
REMARK  106  A    between atoms: _266  and  _269
REMARK  107  A    between atoms: _269  and  _270
REMARK  108  A    between atoms: _270  and  _271
REMARK  109  A    between atoms: _271  and  _272
REMARK  110  A    between atoms: _281  and  _283
REMARK  111  A    between atoms: _283  and  _284
REMARK  112  A    between atoms: _283  and  _286
REMARK  113  A    between atoms: _286  and  _287
REMARK  114  A    between atoms: _287  and  _288
REMARK  115  A    between atoms: _288  and  _289
REMARK  116  A    between atoms: _289  and  _290
REMARK  117  A    between atoms: _294  and  _296
REMARK  118  A    between atoms: _296  and  _297
REMARK  119  A    between atoms: _296  and  _299
REMARK  120  A    between atoms: _299  and  _300
REMARK  121  A    between atoms: _303  and  _305
REMARK  122  A    between atoms: _305  and  _306
REMARK  123  A    between atoms: _305  and  _308
REMARK  124  A    between atoms: _308  and  _309
REMARK  125  A    between atoms: _314  and  _316
REMARK  126  A    between atoms: _316  and  _317
REMARK  127  A    between atoms: _316  and  _319
REMARK  128  A    between atoms: _319  and  _320
REMARK  129  A    between atoms: _320  and  _321
REMARK  130  A    between atoms: _324  and  _326
REMARK  131  A    between atoms: _326  and  _327
REMARK  132  A    between atoms: _326  and  _329
REMARK  133  A    between atoms: _329  and  _330
REMARK  134  A    between atoms: _330  and  _331
REMARK                            x       y       z     vdW  Elec       q    Type
REMARK                         _______ _______ _______ _____ _____    ______ ____
ROOT
ATOM      1  O   HOH     1      23.136 -13.905  -5.115  0.00  0.00    +0.000 OA
ENDROOT
TORSDOF 0
REMARK  Name = ../refined-set-2016/2r0h/2r0h_pocket.pdb
REMARK  134 active torsions:
REMARK  status: ('A' for Active; 'I' for Inactive)
REMARK    1  A    between atoms: _2  and  _3
REMARK    2  A    between atoms: _8  and  _10
REMARK    3  A    between atoms: _10  and  _11
REMARK    4  A    between atoms: _10  and  _13
REMARK    5  A    between atoms: _13  and  _14
REMARK    6  A    between atoms: _17  and  _19
REMARK    7  A    between atoms: _19  and  _20
REMARK    8  A    between atoms: _22  and  _24
REMARK    9  A    between atoms: _24  and  _25
REMARK   10  A    between atoms: _24  and  _27
REMARK   11  A    between atoms: _27  and  _28
REMARK   12  A    between atoms: _31  and  _33
REMARK   13  A    between atoms: _33  and  _34
REMARK   14  A    between atoms: _33  and  _36
REMARK   15  A    between atoms: _36  and  _37
REMARK   16  A    between atoms: _40  and  _42
REMARK   17  A    between atoms: _42  and  _43
REMARK   18  A    between atoms: _42  and  _45
REMARK   19  A    between atoms: _45  and  _46
REMARK   20  A    between atoms: _51  and  _53
REMARK   21  A    between atoms: _53  and  _54
REMARK   22  A    between atoms: _53  and  _56
REMARK   23  A    between atoms: _56  and  _57
REMARK   24  A    between atoms: _60  and  _62
REMARK   25  A    between atoms: _62  and  _63
REMARK   26  A    between atoms: _62  and  _65
REMARK   27  A    between atoms: _65  and  _66
REMARK   28  A    between atoms: _71  and  _73
REMARK   29  A    between atoms: _73  and  _74
REMARK   30  A    between atoms: _73  and  _76
REMARK   31  A    between atoms: _76  and  _77
REMARK   32  A    between atoms: _82  and  _84
REMARK   33  A    between atoms: _84  and  _85
REMARK   34  A    between atoms: _84  and  _87
REMARK   35  A    between atoms: _90  and  _92
REMARK   36  A    between atoms: _92  and  _93
REMARK   37  A    between atoms: _92  and  _95
REMARK   38  A    between atoms: _95  and  _96
REMARK   39  A    between atoms: _101  and  _103
REMARK   40  A    between atoms: _103  and  _104
REMARK   41  A    between atoms: _103  and  _106
REMARK   42  A    between atoms: _106  and  _107
REMARK   43  A    between atoms: _110  and  _112
REMARK   44  A    between atoms: _112  and  _113
REMARK   45  A    between atoms: _115  and  _117
REMARK   46  A    between atoms: _117  and  _118
REMARK   47  A    between atoms: _117  and  _120
REMARK   48  A    between atoms: _120  and  _121
REMARK   49  A    between atoms: _121  and  _122
REMARK   50  A    between atoms: _122  and  _123
REMARK   51  A    between atoms: _132  and  _134
REMARK   52  A    between atoms: _134  and  _135
REMARK   53  A    between atoms: _134  and  _137
REMARK   54  A    between atoms: _137  and  _138
REMARK   55  A    between atoms: _138  and  _139
REMARK   56  A    between atoms: _142  and  _144
REMARK   57  A    between atoms: _144  and  _145
REMARK   58  A    between atoms: _144  and  _147
REMARK   59  A    between atoms: _150  and  _152
REMARK   60  A    between atoms: _152  and  _153
REMARK   61  A    between atoms: _152  and  _155
REMARK   62  A    between atoms: _155  and  _156
REMARK   63  A    between atoms: _162  and  _164
REMARK   64  A    between atoms: _164  and  _165
REMARK   65  A    between atoms: _164  and  _167
REMARK   66  A    between atoms: _167  and  _168
REMARK   67  A    between atoms: _173  and  _175
REMARK   68  A    between atoms: _175  and  _176
REMARK   69  A    between atoms: _175  and  _178
REMARK   70  A    between atoms: _178  and  _179
REMARK   71  A    between atoms: _181  and  _183
REMARK   72  A    between atoms: _183  and  _184
REMARK   73  A    between atoms: _183  and  _186
REMARK   74  A    between atoms: _186  and  _187
REMARK   75  A    between atoms: _190  and  _192
REMARK   76  A    between atoms: _192  and  _193
REMARK   77  A    between atoms: _192  and  _195
REMARK   78  A    between atoms: _195  and  _196
REMARK   79  A    between atoms: _198  and  _200
REMARK   80  A    between atoms: _200  and  _201
REMARK   81  A    between atoms: _200  and  _203
REMARK   82  A    between atoms: _203  and  _204
REMARK   83  A    between atoms: _204  and  _205
REMARK   84  A    between atoms: _205  and  _206
REMARK   85  A    between atoms: _215  and  _217
REMARK   86  A    between atoms: _217  and  _218
REMARK   87  A    between atoms: _221  and  _222
REMARK   88  A    between atoms: _227  and  _229
REMARK   89  A    between atoms: _229  and  _230
REMARK   90  A    between atoms: _229  and  _232
REMARK   91  A    between atoms: _232  and  _233
REMARK   92  A    between atoms: _233  and  _234
REMARK   93  A    between atoms: _237  and  _239
REMARK   94  A    between atoms: _239  and  _240
REMARK   95  A    between atoms: _239  and  _242
REMARK   96  A    between atoms: _242  and  _243
REMARK   97  A    between atoms: _243  and  _244
REMARK   98  A    between atoms: _247  and  _249
REMARK   99  A    between atoms: _249  and  _250
REMARK  100  A    between atoms: _249  and  _252
REMARK  101  A    between atoms: _252  and  _253
REMARK  102  A    between atoms: _253  and  _254
REMARK  103  A    between atoms: _254  and  _255
REMARK  104  A    between atoms: _264  and  _266
REMARK  105  A    between atoms: _266  and  _267
REMARK  106  A    between atoms: _266  and  _269
REMARK  107  A    between atoms: _269  and  _270
REMARK  108  A    between atoms: _270  and  _271
REMARK  109  A    between atoms: _271  and  _272
REMARK  110  A    between atoms: _281  and  _283
REMARK  111  A    between atoms: _283  and  _284
REMARK  112  A    between atoms: _283  and  _286
REMARK  113  A    between atoms: _286  and  _287
REMARK  114  A    between atoms: _287  and  _288
REMARK  115  A    between atoms: _288  and  _289
REMARK  116  A    between atoms: _289  and  _290
REMARK  117  A    between atoms: _294  and  _296
REMARK  118  A    between atoms: _296  and  _297
REMARK  119  A    between atoms: _296  and  _299
REMARK  120  A    between atoms: _299  and  _300
REMARK  121  A    between atoms: _303  and  _305
REMARK  122  A    between atoms: _305  and  _306
REMARK  123  A    between atoms: _305  and  _308
REMARK  124  A    between atoms: _308  and  _309
REMARK  125  A    between atoms: _314  and  _316
REMARK  126  A    between atoms: _316  and  _317
REMARK  127  A    between atoms: _316  and  _319
REMARK  128  A    between atoms: _319  and  _320
REMARK  129  A    between atoms: _320  and  _321
REMARK  130  A    between atoms: _324  and  _326
REMARK  131  A    between atoms: _326  and  _327
REMARK  132  A    between atoms: _326  and  _329
REMARK  133  A    between atoms: _329  and  _330
REMARK  134  A    between atoms: _330  and  _331
REMARK                            x       y       z     vdW  Elec       q    Type
REMARK                         _______ _______ _______ _____ _____    ______ ____
ROOT
ATOM      1  O   HOH     1      18.034 -12.473  -5.108  0.00  0.00    +0.000 OA
ENDROOT
TORSDOF 0
REMARK  Name = ../refined-set-2016/2r0h/2r0h_pocket.pdb
REMARK  134 active torsions:
REMARK  status: ('A' for Active; 'I' for Inactive)
REMARK    1  A    between atoms: _2  and  _3
REMARK    2  A    between atoms: _8  and  _10
REMARK    3  A    between atoms: _10  and  _11
REMARK    4  A    between atoms: _10  and  _13
REMARK    5  A    between atoms: _13  and  _14
REMARK    6  A    between atoms: _17  and  _19
REMARK    7  A    between atoms: _19  and  _20
REMARK    8  A    between atoms: _22  and  _24
REMARK    9  A    between atoms: _24  and  _25
REMARK   10  A    between atoms: _24  and  _27
REMARK   11  A    between atoms: _27  and  _28
REMARK   12  A    between atoms: _31  and  _33
REMARK   13  A    between atoms: _33  and  _34
REMARK   14  A    between atoms: _33  and  _36
REMARK   15  A    between atoms: _36  and  _37
REMARK   16  A    between atoms: _40  and  _42
REMARK   17  A    between atoms: _42  and  _43
REMARK   18  A    between atoms: _42  and  _45
REMARK   19  A    between atoms: _45  and  _46
REMARK   20  A    between atoms: _51  and  _53
REMARK   21  A    between atoms: _53  and  _54
REMARK   22  A    between atoms: _53  and  _56
REMARK   23  A    between atoms: _56  and  _57
REMARK   24  A    between atoms: _60  and  _62
REMARK   25  A    between atoms: _62  and  _63
REMARK   26  A    between atoms: _62  and  _65
REMARK   27  A    between atoms: _65  and  _66
REMARK   28  A    between atoms: _71  and  _73
REMARK   29  A    between atoms: _73  and  _74
REMARK   30  A    between atoms: _73  and  _76
REMARK   31  A    between atoms: _76  and  _77
REMARK   32  A    between atoms: _82  and  _84
REMARK   33  A    between atoms: _84  and  _85
REMARK   34  A    between atoms: _84  and  _87
REMARK   35  A    between atoms: _90  and  _92
REMARK   36  A    between atoms: _92  and  _93
REMARK   37  A    between atoms: _92  and  _95
REMARK   38  A    between atoms: _95  and  _96
REMARK   39  A    between atoms: _101  and  _103
REMARK   40  A    between atoms: _103  and  _104
REMARK   41  A    between atoms: _103  and  _106
REMARK   42  A    between atoms: _106  and  _107
REMARK   43  A    between atoms: _110  and  _112
REMARK   44  A    between atoms: _112  and  _113
REMARK   45  A    between atoms: _115  and  _117
REMARK   46  A    between atoms: _117  and  _118
REMARK   47  A    between atoms: _117  and  _120
REMARK   48  A    between atoms: _120  and  _121
REMARK   49  A    between atoms: _121  and  _122
REMARK   50  A    between atoms: _122  and  _123
REMARK   51  A    between atoms: _132  and  _134
REMARK   52  A    between atoms: _134  and  _135
REMARK   53  A    between atoms: _134  and  _137
REMARK   54  A    between atoms: _137  and  _138
REMARK   55  A    between atoms: _138  and  _139
REMARK   56  A    between atoms: _142  and  _144
REMARK   57  A    between atoms: _144  and  _145
REMARK   58  A    between atoms: _144  and  _147
REMARK   59  A    between atoms: _150  and  _152
REMARK   60  A    between atoms: _152  and  _153
REMARK   61  A    between atoms: _152  and  _155
REMARK   62  A    between atoms: _155  and  _156
REMARK   63  A    between atoms: _162  and  _164
REMARK   64  A    between atoms: _164  and  _165
REMARK   65  A    between atoms: _164  and  _167
REMARK   66  A    between atoms: _167  and  _168
REMARK   67  A    between atoms: _173  and  _175
REMARK   68  A    between atoms: _175  and  _176
REMARK   69  A    between atoms: _175  and  _178
REMARK   70  A    between atoms: _178  and  _179
REMARK   71  A    between atoms: _181  and  _183
REMARK   72  A    between atoms: _183  and  _184
REMARK   73  A    between atoms: _183  and  _186
REMARK   74  A    between atoms: _186  and  _187
REMARK   75  A    between atoms: _190  and  _192
REMARK   76  A    between atoms: _192  and  _193
REMARK   77  A    between atoms: _192  and  _195
REMARK   78  A    between atoms: _195  and  _196
REMARK   79  A    between atoms: _198  and  _200
REMARK   80  A    between atoms: _200  and  _201
REMARK   81  A    between atoms: _200  and  _203
REMARK   82  A    between atoms: _203  and  _204
REMARK   83  A    between atoms: _204  and  _205
REMARK   84  A    between atoms: _205  and  _206
REMARK   85  A    between atoms: _215  and  _217
REMARK   86  A    between atoms: _217  and  _218
REMARK   87  A    between atoms: _221  and  _222
REMARK   88  A    between atoms: _227  and  _229
REMARK   89  A    between atoms: _229  and  _230
REMARK   90  A    between atoms: _229  and  _232
REMARK   91  A    between atoms: _232  and  _233
REMARK   92  A    between atoms: _233  and  _234
REMARK   93  A    between atoms: _237  and  _239
REMARK   94  A    between atoms: _239  and  _240
REMARK   95  A    between atoms: _239  and  _242
REMARK   96  A    between atoms: _242  and  _243
REMARK   97  A    between atoms: _243  and  _244
REMARK   98  A    between atoms: _247  and  _249
REMARK   99  A    between atoms: _249  and  _250
REMARK  100  A    between atoms: _249  and  _252
REMARK  101  A    between atoms: _252  and  _253
REMARK  102  A    between atoms: _253  and  _254
REMARK  103  A    between atoms: _254  and  _255
REMARK  104  A    between atoms: _264  and  _266
REMARK  105  A    between atoms: _266  and  _267
REMARK  106  A    between atoms: _266  and  _269
REMARK  107  A    between atoms: _269  and  _270
REMARK  108  A    between atoms: _270  and  _271
REMARK  109  A    between atoms: _271  and  _272
REMARK  110  A    between atoms: _281  and  _283
REMARK  111  A    between atoms: _283  and  _284
REMARK  112  A    between atoms: _283  and  _286
REMARK  113  A    between atoms: _286  and  _287
REMARK  114  A    between atoms: _287  and  _288
REMARK  115  A    between atoms: _288  and  _289
REMARK  116  A    between atoms: _289  and  _290
REMARK  117  A    between atoms: _294  and  _296
REMARK  118  A    between atoms: _296  and  _297
REMARK  119  A    between atoms: _296  and  _299
REMARK  120  A    between atoms: _299  and  _300
REMARK  121  A    between atoms: _303  and  _305
REMARK  122  A    between atoms: _305  and  _306
REMARK  123  A    between atoms: _305  and  _308
REMARK  124  A    between atoms: _308  and  _309
REMARK  125  A    between atoms: _314  and  _316
REMARK  126  A    between atoms: _316  and  _317
REMARK  127  A    between atoms: _316  and  _319
REMARK  128  A    between atoms: _319  and  _320
REMARK  129  A    between atoms: _320  and  _321
REMARK  130  A    between atoms: _324  and  _326
REMARK  131  A    between atoms: _326  and  _327
REMARK  132  A    between atoms: _326  and  _329
REMARK  133  A    between atoms: _329  and  _330
REMARK  134  A    between atoms: _330  and  _331
REMARK                            x       y       z     vdW  Elec       q    Type
REMARK                         _______ _______ _______ _____ _____    ______ ____
ROOT
ATOM      1  O   HOH     1      16.015 -13.384  -6.368  0.00  0.00    +0.000 OA
ENDROOT
TORSDOF 0
REMARK  Name = ../refined-set-2016/2r0h/2r0h_pocket.pdb
REMARK  134 active torsions:
REMARK  status: ('A' for Active; 'I' for Inactive)
REMARK    1  A    between atoms: _2  and  _3
REMARK    2  A    between atoms: _8  and  _10
REMARK    3  A    between atoms: _10  and  _11
REMARK    4  A    between atoms: _10  and  _13
REMARK    5  A    between atoms: _13  and  _14
REMARK    6  A    between atoms: _17  and  _19
REMARK    7  A    between atoms: _19  and  _20
REMARK    8  A    between atoms: _22  and  _24
REMARK    9  A    between atoms: _24  and  _25
REMARK   10  A    between atoms: _24  and  _27
REMARK   11  A    between atoms: _27  and  _28
REMARK   12  A    between atoms: _31  and  _33
REMARK   13  A    between atoms: _33  and  _34
REMARK   14  A    between atoms: _33  and  _36
REMARK   15  A    between atoms: _36  and  _37
REMARK   16  A    between atoms: _40  and  _42
REMARK   17  A    between atoms: _42  and  _43
REMARK   18  A    between atoms: _42  and  _45
REMARK   19  A    between atoms: _45  and  _46
REMARK   20  A    between atoms: _51  and  _53
REMARK   21  A    between atoms: _53  and  _54
REMARK   22  A    between atoms: _53  and  _56
REMARK   23  A    between atoms: _56  and  _57
REMARK   24  A    between atoms: _60  and  _62
REMARK   25  A    between atoms: _62  and  _63
REMARK   26  A    between atoms: _62  and  _65
REMARK   27  A    between atoms: _65  and  _66
REMARK   28  A    between atoms: _71  and  _73
REMARK   29  A    between atoms: _73  and  _74
REMARK   30  A    between atoms: _73  and  _76
REMARK   31  A    between atoms: _76  and  _77
REMARK   32  A    between atoms: _82  and  _84
REMARK   33  A    between atoms: _84  and  _85
REMARK   34  A    between atoms: _84  and  _87
REMARK   35  A    between atoms: _90  and  _92
REMARK   36  A    between atoms: _92  and  _93
REMARK   37  A    between atoms: _92  and  _95
REMARK   38  A    between atoms: _95  and  _96
REMARK   39  A    between atoms: _101  and  _103
REMARK   40  A    between atoms: _103  and  _104
REMARK   41  A    between atoms: _103  and  _106
REMARK   42  A    between atoms: _106  and  _107
REMARK   43  A    between atoms: _110  and  _112
REMARK   44  A    between atoms: _112  and  _113
REMARK   45  A    between atoms: _115  and  _117
REMARK   46  A    between atoms: _117  and  _118
REMARK   47  A    between atoms: _117  and  _120
REMARK   48  A    between atoms: _120  and  _121
REMARK   49  A    between atoms: _121  and  _122
REMARK   50  A    between atoms: _122  and  _123
REMARK   51  A    between atoms: _132  and  _134
REMARK   52  A    between atoms: _134  and  _135
REMARK   53  A    between atoms: _134  and  _137
REMARK   54  A    between atoms: _137  and  _138
REMARK   55  A    between atoms: _138  and  _139
REMARK   56  A    between atoms: _142  and  _144
REMARK   57  A    between atoms: _144  and  _145
REMARK   58  A    between atoms: _144  and  _147
REMARK   59  A    between atoms: _150  and  _152
REMARK   60  A    between atoms: _152  and  _153
REMARK   61  A    between atoms: _152  and  _155
REMARK   62  A    between atoms: _155  and  _156
REMARK   63  A    between atoms: _162  and  _164
REMARK   64  A    between atoms: _164  and  _165
REMARK   65  A    between atoms: _164  and  _167
REMARK   66  A    between atoms: _167  and  _168
REMARK   67  A    between atoms: _173  and  _175
REMARK   68  A    between atoms: _175  and  _176
REMARK   69  A    between atoms: _175  and  _178
REMARK   70  A    between atoms: _178  and  _179
REMARK   71  A    between atoms: _181  and  _183
REMARK   72  A    between atoms: _183  and  _184
REMARK   73  A    between atoms: _183  and  _186
REMARK   74  A    between atoms: _186  and  _187
REMARK   75  A    between atoms: _190  and  _192
REMARK   76  A    between atoms: _192  and  _193
REMARK   77  A    between atoms: _192  and  _195
REMARK   78  A    between atoms: _195  and  _196
REMARK   79  A    between atoms: _198  and  _200
REMARK   80  A    between atoms: _200  and  _201
REMARK   81  A    between atoms: _200  and  _203
REMARK   82  A    between atoms: _203  and  _204
REMARK   83  A    between atoms: _204  and  _205
REMARK   84  A    between atoms: _205  and  _206
REMARK   85  A    between atoms: _215  and  _217
REMARK   86  A    between atoms: _217  and  _218
REMARK   87  A    between atoms: _221  and  _222
REMARK   88  A    between atoms: _227  and  _229
REMARK   89  A    between atoms: _229  and  _230
REMARK   90  A    between atoms: _229  and  _232
REMARK   91  A    between atoms: _232  and  _233
REMARK   92  A    between atoms: _233  and  _234
REMARK   93  A    between atoms: _237  and  _239
REMARK   94  A    between atoms: _239  and  _240
REMARK   95  A    between atoms: _239  and  _242
REMARK   96  A    between atoms: _242  and  _243
REMARK   97  A    between atoms: _243  and  _244
REMARK   98  A    between atoms: _247  and  _249
REMARK   99  A    between atoms: _249  and  _250
REMARK  100  A    between atoms: _249  and  _252
REMARK  101  A    between atoms: _252  and  _253
REMARK  102  A    between atoms: _253  and  _254
REMARK  103  A    between atoms: _254  and  _255
REMARK  104  A    between atoms: _264  and  _266
REMARK  105  A    between atoms: _266  and  _267
REMARK  106  A    between atoms: _266  and  _269
REMARK  107  A    between atoms: _269  and  _270
REMARK  108  A    between atoms: _270  and  _271
REMARK  109  A    between atoms: _271  and  _272
REMARK  110  A    between atoms: _281  and  _283
REMARK  111  A    between atoms: _283  and  _284
REMARK  112  A    between atoms: _283  and  _286
REMARK  113  A    between atoms: _286  and  _287
REMARK  114  A    between atoms: _287  and  _288
REMARK  115  A    between atoms: _288  and  _289
REMARK  116  A    between atoms: _289  and  _290
REMARK  117  A    between atoms: _294  and  _296
REMARK  118  A    between atoms: _296  and  _297
REMARK  119  A    between atoms: _296  and  _299
REMARK  120  A    between atoms: _299  and  _300
REMARK  121  A    between atoms: _303  and  _305
REMARK  122  A    between atoms: _305  and  _306
REMARK  123  A    between atoms: _305  and  _308
REMARK  124  A    between atoms: _308  and  _309
REMARK  125  A    between atoms: _314  and  _316
REMARK  126  A    between atoms: _316  and  _317
REMARK  127  A    between atoms: _316  and  _319
REMARK  128  A    between atoms: _319  and  _320
REMARK  129  A    between atoms: _320  and  _321
REMARK  130  A    between atoms: _324  and  _326
REMARK  131  A    between atoms: _326  and  _327
REMARK  132  A    between atoms: _326  and  _329
REMARK  133  A    between atoms: _329  and  _330
REMARK  134  A    between atoms: _330  and  _331
REMARK                            x       y       z     vdW  Elec       q    Type
REMARK                         _______ _______ _______ _____ _____    ______ ____
ROOT
ATOM      1  O   HOH     1      29.072   1.173  -4.465  0.00  0.00    +0.000 OA
ENDROOT
TORSDOF 0
REMARK  Name = ../refined-set-2016/2r0h/2r0h_pocket.pdb
REMARK  134 active torsions:
REMARK  status: ('A' for Active; 'I' for Inactive)
REMARK    1  A    between atoms: _2  and  _3
REMARK    2  A    between atoms: _8  and  _10
REMARK    3  A    between atoms: _10  and  _11
REMARK    4  A    between atoms: _10  and  _13
REMARK    5  A    between atoms: _13  and  _14
REMARK    6  A    between atoms: _17  and  _19
REMARK    7  A    between atoms: _19  and  _20
REMARK    8  A    between atoms: _22  and  _24
REMARK    9  A    between atoms: _24  and  _25
REMARK   10  A    between atoms: _24  and  _27
REMARK   11  A    between atoms: _27  and  _28
REMARK   12  A    between atoms: _31  and  _33
REMARK   13  A    between atoms: _33  and  _34
REMARK   14  A    between atoms: _33  and  _36
REMARK   15  A    between atoms: _36  and  _37
REMARK   16  A    between atoms: _40  and  _42
REMARK   17  A    between atoms: _42  and  _43
REMARK   18  A    between atoms: _42  and  _45
REMARK   19  A    between atoms: _45  and  _46
REMARK   20  A    between atoms: _51  and  _53
REMARK   21  A    between atoms: _53  and  _54
REMARK   22  A    between atoms: _53  and  _56
REMARK   23  A    between atoms: _56  and  _57
REMARK   24  A    between atoms: _60  and  _62
REMARK   25  A    between atoms: _62  and  _63
REMARK   26  A    between atoms: _62  and  _65
REMARK   27  A    between atoms: _65  and  _66
REMARK   28  A    between atoms: _71  and  _73
REMARK   29  A    between atoms: _73  and  _74
REMARK   30  A    between atoms: _73  and  _76
REMARK   31  A    between atoms: _76  and  _77
REMARK   32  A    between atoms: _82  and  _84
REMARK   33  A    between atoms: _84  and  _85
REMARK   34  A    between atoms: _84  and  _87
REMARK   35  A    between atoms: _90  and  _92
REMARK   36  A    between atoms: _92  and  _93
REMARK   37  A    between atoms: _92  and  _95
REMARK   38  A    between atoms: _95  and  _96
REMARK   39  A    between atoms: _101  and  _103
REMARK   40  A    between atoms: _103  and  _104
REMARK   41  A    between atoms: _103  and  _106
REMARK   42  A    between atoms: _106  and  _107
REMARK   43  A    between atoms: _110  and  _112
REMARK   44  A    between atoms: _112  and  _113
REMARK   45  A    between atoms: _115  and  _117
REMARK   46  A    between atoms: _117  and  _118
REMARK   47  A    between atoms: _117  and  _120
REMARK   48  A    between atoms: _120  and  _121
REMARK   49  A    between atoms: _121  and  _122
REMARK   50  A    between atoms: _122  and  _123
REMARK   51  A    between atoms: _132  and  _134
REMARK   52  A    between atoms: _134  and  _135
REMARK   53  A    between atoms: _134  and  _137
REMARK   54  A    between atoms: _137  and  _138
REMARK   55  A    between atoms: _138  and  _139
REMARK   56  A    between atoms: _142  and  _144
REMARK   57  A    between atoms: _144  and  _145
REMARK   58  A    between atoms: _144  and  _147
REMARK   59  A    between atoms: _150  and  _152
REMARK   60  A    between atoms: _152  and  _153
REMARK   61  A    between atoms: _152  and  _155
REMARK   62  A    between atoms: _155  and  _156
REMARK   63  A    between atoms: _162  and  _164
REMARK   64  A    between atoms: _164  and  _165
REMARK   65  A    between atoms: _164  and  _167
REMARK   66  A    between atoms: _167  and  _168
REMARK   67  A    between atoms: _173  and  _175
REMARK   68  A    between atoms: _175  and  _176
REMARK   69  A    between atoms: _175  and  _178
REMARK   70  A    between atoms: _178  and  _179
REMARK   71  A    between atoms: _181  and  _183
REMARK   72  A    between atoms: _183  and  _184
REMARK   73  A    between atoms: _183  and  _186
REMARK   74  A    between atoms: _186  and  _187
REMARK   75  A    between atoms: _190  and  _192
REMARK   76  A    between atoms: _192  and  _193
REMARK   77  A    between atoms: _192  and  _195
REMARK   78  A    between atoms: _195  and  _196
REMARK   79  A    between atoms: _198  and  _200
REMARK   80  A    between atoms: _200  and  _201
REMARK   81  A    between atoms: _200  and  _203
REMARK   82  A    between atoms: _203  and  _204
REMARK   83  A    between atoms: _204  and  _205
REMARK   84  A    between atoms: _205  and  _206
REMARK   85  A    between atoms: _215  and  _217
REMARK   86  A    between atoms: _217  and  _218
REMARK   87  A    between atoms: _221  and  _222
REMARK   88  A    between atoms: _227  and  _229
REMARK   89  A    between atoms: _229  and  _230
REMARK   90  A    between atoms: _229  and  _232
REMARK   91  A    between atoms: _232  and  _233
REMARK   92  A    between atoms: _233  and  _234
REMARK   93  A    between atoms: _237  and  _239
REMARK   94  A    between atoms: _239  and  _240
REMARK   95  A    between atoms: _239  and  _242
REMARK   96  A    between atoms: _242  and  _243
REMARK   97  A    between atoms: _243  and  _244
REMARK   98  A    between atoms: _247  and  _249
REMARK   99  A    between atoms: _249  and  _250
REMARK  100  A    between atoms: _249  and  _252
REMARK  101  A    between atoms: _252  and  _253
REMARK  102  A    between atoms: _253  and  _254
REMARK  103  A    between atoms: _254  and  _255
REMARK  104  A    between atoms: _264  and  _266
REMARK  105  A    between atoms: _266  and  _267
REMARK  106  A    between atoms: _266  and  _269
REMARK  107  A    between atoms: _269  and  _270
REMARK  108  A    between atoms: _270  and  _271
REMARK  109  A    between atoms: _271  and  _272
REMARK  110  A    between atoms: _281  and  _283
REMARK  111  A    between atoms: _283  and  _284
REMARK  112  A    between atoms: _283  and  _286
REMARK  113  A    between atoms: _286  and  _287
REMARK  114  A    between atoms: _287  and  _288
REMARK  115  A    between atoms: _288  and  _289
REMARK  116  A    between atoms: _289  and  _290
REMARK  117  A    between atoms: _294  and  _296
REMARK  118  A    between atoms: _296  and  _297
REMARK  119  A    between atoms: _296  and  _299
REMARK  120  A    between atoms: _299  and  _300
REMARK  121  A    between atoms: _303  and  _305
REMARK  122  A    between atoms: _305  and  _306
REMARK  123  A    between atoms: _305  and  _308
REMARK  124  A    between atoms: _308  and  _309
REMARK  125  A    between atoms: _314  and  _316
REMARK  126  A    between atoms: _316  and  _317
REMARK  127  A    between atoms: _316  and  _319
REMARK  128  A    between atoms: _319  and  _320
REMARK  129  A    between atoms: _320  and  _321
REMARK  130  A    between atoms: _324  and  _326
REMARK  131  A    between atoms: _326  and  _327
REMARK  132  A    between atoms: _326  and  _329
REMARK  133  A    between atoms: _329  and  _330
REMARK  134  A    between atoms: _330  and  _331
REMARK                            x       y       z     vdW  Elec       q    Type
REMARK                         _______ _______ _______ _____ _____    ______ ____
ROOT
ATOM      1  O   HOH     1      19.866 -13.654 -10.841  0.00  0.00    +0.000 OA
ENDROOT
TORSDOF 0
REMARK  Name = ../refined-set-2016/2r0h/2r0h_pocket.pdb
REMARK  134 active torsions:
REMARK  status: ('A' for Active; 'I' for Inactive)
REMARK    1  A    between atoms: _2  and  _3
REMARK    2  A    between atoms: _8  and  _10
REMARK    3  A    between atoms: _10  and  _11
REMARK    4  A    between atoms: _10  and  _13
REMARK    5  A    between atoms: _13  and  _14
REMARK    6  A    between atoms: _17  and  _19
REMARK    7  A    between atoms: _19  and  _20
REMARK    8  A    between atoms: _22  and  _24
REMARK    9  A    between atoms: _24  and  _25
REMARK   10  A    between atoms: _24  and  _27
REMARK   11  A    between atoms: _27  and  _28
REMARK   12  A    between atoms: _31  and  _33
REMARK   13  A    between atoms: _33  and  _34
REMARK   14  A    between atoms: _33  and  _36
REMARK   15  A    between atoms: _36  and  _37
REMARK   16  A    between atoms: _40  and  _42
REMARK   17  A    between atoms: _42  and  _43
REMARK   18  A    between atoms: _42  and  _45
REMARK   19  A    between atoms: _45  and  _46
REMARK   20  A    between atoms: _51  and  _53
REMARK   21  A    between atoms: _53  and  _54
REMARK   22  A    between atoms: _53  and  _56
REMARK   23  A    between atoms: _56  and  _57
REMARK   24  A    between atoms: _60  and  _62
REMARK   25  A    between atoms: _62  and  _63
REMARK   26  A    between atoms: _62  and  _65
REMARK   27  A    between atoms: _65  and  _66
REMARK   28  A    between atoms: _71  and  _73
REMARK   29  A    between atoms: _73  and  _74
REMARK   30  A    between atoms: _73  and  _76
REMARK   31  A    between atoms: _76  and  _77
REMARK   32  A    between atoms: _82  and  _84
REMARK   33  A    between atoms: _84  and  _85
REMARK   34  A    between atoms: _84  and  _87
REMARK   35  A    between atoms: _90  and  _92
REMARK   36  A    between atoms: _92  and  _93
REMARK   37  A    between atoms: _92  and  _95
REMARK   38  A    between atoms: _95  and  _96
REMARK   39  A    between atoms: _101  and  _103
REMARK   40  A    between atoms: _103  and  _104
REMARK   41  A    between atoms: _103  and  _106
REMARK   42  A    between atoms: _106  and  _107
REMARK   43  A    between atoms: _110  and  _112
REMARK   44  A    between atoms: _112  and  _113
REMARK   45  A    between atoms: _115  and  _117
REMARK   46  A    between atoms: _117  and  _118
REMARK   47  A    between atoms: _117  and  _120
REMARK   48  A    between atoms: _120  and  _121
REMARK   49  A    between atoms: _121  and  _122
REMARK   50  A    between atoms: _122  and  _123
REMARK   51  A    between atoms: _132  and  _134
REMARK   52  A    between atoms: _134  and  _135
REMARK   53  A    between atoms: _134  and  _137
REMARK   54  A    between atoms: _137  and  _138
REMARK   55  A    between atoms: _138  and  _139
REMARK   56  A    between atoms: _142  and  _144
REMARK   57  A    between atoms: _144  and  _145
REMARK   58  A    between atoms: _144  and  _147
REMARK   59  A    between atoms: _150  and  _152
REMARK   60  A    between atoms: _152  and  _153
REMARK   61  A    between atoms: _152  and  _155
REMARK   62  A    between atoms: _155  and  _156
REMARK   63  A    between atoms: _162  and  _164
REMARK   64  A    between atoms: _164  and  _165
REMARK   65  A    between atoms: _164  and  _167
REMARK   66  A    between atoms: _167  and  _168
REMARK   67  A    between atoms: _173  and  _175
REMARK   68  A    between atoms: _175  and  _176
REMARK   69  A    between atoms: _175  and  _178
REMARK   70  A    between atoms: _178  and  _179
REMARK   71  A    between atoms: _181  and  _183
REMARK   72  A    between atoms: _183  and  _184
REMARK   73  A    between atoms: _183  and  _186
REMARK   74  A    between atoms: _186  and  _187
REMARK   75  A    between atoms: _190  and  _192
REMARK   76  A    between atoms: _192  and  _193
REMARK   77  A    between atoms: _192  and  _195
REMARK   78  A    between atoms: _195  and  _196
REMARK   79  A    between atoms: _198  and  _200
REMARK   80  A    between atoms: _200  and  _201
REMARK   81  A    between atoms: _200  and  _203
REMARK   82  A    between atoms: _203  and  _204
REMARK   83  A    between atoms: _204  and  _205
REMARK   84  A    between atoms: _205  and  _206
REMARK   85  A    between atoms: _215  and  _217
REMARK   86  A    between atoms: _217  and  _218
REMARK   87  A    between atoms: _221  and  _222
REMARK   88  A    between atoms: _227  and  _229
REMARK   89  A    between atoms: _229  and  _230
REMARK   90  A    between atoms: _229  and  _232
REMARK   91  A    between atoms: _232  and  _233
REMARK   92  A    between atoms: _233  and  _234
REMARK   93  A    between atoms: _237  and  _239
REMARK   94  A    between atoms: _239  and  _240
REMARK   95  A    between atoms: _239  and  _242
REMARK   96  A    between atoms: _242  and  _243
REMARK   97  A    between atoms: _243  and  _244
REMARK   98  A    between atoms: _247  and  _249
REMARK   99  A    between atoms: _249  and  _250
REMARK  100  A    between atoms: _249  and  _252
REMARK  101  A    between atoms: _252  and  _253
REMARK  102  A    between atoms: _253  and  _254
REMARK  103  A    between atoms: _254  and  _255
REMARK  104  A    between atoms: _264  and  _266
REMARK  105  A    between atoms: _266  and  _267
REMARK  106  A    between atoms: _266  and  _269
REMARK  107  A    between atoms: _269  and  _270
REMARK  108  A    between atoms: _270  and  _271
REMARK  109  A    between atoms: _271  and  _272
REMARK  110  A    between atoms: _281  and  _283
REMARK  111  A    between atoms: _283  and  _284
REMARK  112  A    between atoms: _283  and  _286
REMARK  113  A    between atoms: _286  and  _287
REMARK  114  A    between atoms: _287  and  _288
REMARK  115  A    between atoms: _288  and  _289
REMARK  116  A    between atoms: _289  and  _290
REMARK  117  A    between atoms: _294  and  _296
REMARK  118  A    between atoms: _296  and  _297
REMARK  119  A    between atoms: _296  and  _299
REMARK  120  A    between atoms: _299  and  _300
REMARK  121  A    between atoms: _303  and  _305
REMARK  122  A    between atoms: _305  and  _306
REMARK  123  A    between atoms: _305  and  _308
REMARK  124  A    between atoms: _308  and  _309
REMARK  125  A    between atoms: _314  and  _316
REMARK  126  A    between atoms: _316  and  _317
REMARK  127  A    between atoms: _316  and  _319
REMARK  128  A    between atoms: _319  and  _320
REMARK  129  A    between atoms: _320  and  _321
REMARK  130  A    between atoms: _324  and  _326
REMARK  131  A    between atoms: _326  and  _327
REMARK  132  A    between atoms: _326  and  _329
REMARK  133  A    between atoms: _329  and  _330
REMARK  134  A    between atoms: _330  and  _331
REMARK                            x       y       z     vdW  Elec       q    Type
REMARK                         _______ _______ _______ _____ _____    ______ ____
ROOT
ATOM      1  O   HOH     1      16.207 -13.435 -10.054  0.00  0.00    +0.000 OA
ENDROOT
TORSDOF 0
REMARK  Name = ../refined-set-2016/2r0h/2r0h_pocket.pdb
REMARK  134 active torsions:
REMARK  status: ('A' for Active; 'I' for Inactive)
REMARK    1  A    between atoms: _2  and  _3
REMARK    2  A    between atoms: _8  and  _10
REMARK    3  A    between atoms: _10  and  _11
REMARK    4  A    between atoms: _10  and  _13
REMARK    5  A    between atoms: _13  and  _14
REMARK    6  A    between atoms: _17  and  _19
REMARK    7  A    between atoms: _19  and  _20
REMARK    8  A    between atoms: _22  and  _24
REMARK    9  A    between atoms: _24  and  _25
REMARK   10  A    between atoms: _24  and  _27
REMARK   11  A    between atoms: _27  and  _28
REMARK   12  A    between atoms: _31  and  _33
REMARK   13  A    between atoms: _33  and  _34
REMARK   14  A    between atoms: _33  and  _36
REMARK   15  A    between atoms: _36  and  _37
REMARK   16  A    between atoms: _40  and  _42
REMARK   17  A    between atoms: _42  and  _43
REMARK   18  A    between atoms: _42  and  _45
REMARK   19  A    between atoms: _45  and  _46
REMARK   20  A    between atoms: _51  and  _53
REMARK   21  A    between atoms: _53  and  _54
REMARK   22  A    between atoms: _53  and  _56
REMARK   23  A    between atoms: _56  and  _57
REMARK   24  A    between atoms: _60  and  _62
REMARK   25  A    between atoms: _62  and  _63
REMARK   26  A    between atoms: _62  and  _65
REMARK   27  A    between atoms: _65  and  _66
REMARK   28  A    between atoms: _71  and  _73
REMARK   29  A    between atoms: _73  and  _74
REMARK   30  A    between atoms: _73  and  _76
REMARK   31  A    between atoms: _76  and  _77
REMARK   32  A    between atoms: _82  and  _84
REMARK   33  A    between atoms: _84  and  _85
REMARK   34  A    between atoms: _84  and  _87
REMARK   35  A    between atoms: _90  and  _92
REMARK   36  A    between atoms: _92  and  _93
REMARK   37  A    between atoms: _92  and  _95
REMARK   38  A    between atoms: _95  and  _96
REMARK   39  A    between atoms: _101  and  _103
REMARK   40  A    between atoms: _103  and  _104
REMARK   41  A    between atoms: _103  and  _106
REMARK   42  A    between atoms: _106  and  _107
REMARK   43  A    between atoms: _110  and  _112
REMARK   44  A    between atoms: _112  and  _113
REMARK   45  A    between atoms: _115  and  _117
REMARK   46  A    between atoms: _117  and  _118
REMARK   47  A    between atoms: _117  and  _120
REMARK   48  A    between atoms: _120  and  _121
REMARK   49  A    between atoms: _121  and  _122
REMARK   50  A    between atoms: _122  and  _123
REMARK   51  A    between atoms: _132  and  _134
REMARK   52  A    between atoms: _134  and  _135
REMARK   53  A    between atoms: _134  and  _137
REMARK   54  A    between atoms: _137  and  _138
REMARK   55  A    between atoms: _138  and  _139
REMARK   56  A    between atoms: _142  and  _144
REMARK   57  A    between atoms: _144  and  _145
REMARK   58  A    between atoms: _144  and  _147
REMARK   59  A    between atoms: _150  and  _152
REMARK   60  A    between atoms: _152  and  _153
REMARK   61  A    between atoms: _152  and  _155
REMARK   62  A    between atoms: _155  and  _156
REMARK   63  A    between atoms: _162  and  _164
REMARK   64  A    between atoms: _164  and  _165
REMARK   65  A    between atoms: _164  and  _167
REMARK   66  A    between atoms: _167  and  _168
REMARK   67  A    between atoms: _173  and  _175
REMARK   68  A    between atoms: _175  and  _176
REMARK   69  A    between atoms: _175  and  _178
REMARK   70  A    between atoms: _178  and  _179
REMARK   71  A    between atoms: _181  and  _183
REMARK   72  A    between atoms: _183  and  _184
REMARK   73  A    between atoms: _183  and  _186
REMARK   74  A    between atoms: _186  and  _187
REMARK   75  A    between atoms: _190  and  _192
REMARK   76  A    between atoms: _192  and  _193
REMARK   77  A    between atoms: _192  and  _195
REMARK   78  A    between atoms: _195  and  _196
REMARK   79  A    between atoms: _198  and  _200
REMARK   80  A    between atoms: _200  and  _201
REMARK   81  A    between atoms: _200  and  _203
REMARK   82  A    between atoms: _203  and  _204
REMARK   83  A    between atoms: _204  and  _205
REMARK   84  A    between atoms: _205  and  _206
REMARK   85  A    between atoms: _215  and  _217
REMARK   86  A    between atoms: _217  and  _218
REMARK   87  A    between atoms: _221  and  _222
REMARK   88  A    between atoms: _227  and  _229
REMARK   89  A    between atoms: _229  and  _230
REMARK   90  A    between atoms: _229  and  _232
REMARK   91  A    between atoms: _232  and  _233
REMARK   92  A    between atoms: _233  and  _234
REMARK   93  A    between atoms: _237  and  _239
REMARK   94  A    between atoms: _239  and  _240
REMARK   95  A    between atoms: _239  and  _242
REMARK   96  A    between atoms: _242  and  _243
REMARK   97  A    between atoms: _243  and  _244
REMARK   98  A    between atoms: _247  and  _249
REMARK   99  A    between atoms: _249  and  _250
REMARK  100  A    between atoms: _249  and  _252
REMARK  101  A    between atoms: _252  and  _253
REMARK  102  A    between atoms: _253  and  _254
REMARK  103  A    between atoms: _254  and  _255
REMARK  104  A    between atoms: _264  and  _266
REMARK  105  A    between atoms: _266  and  _267
REMARK  106  A    between atoms: _266  and  _269
REMARK  107  A    between atoms: _269  and  _270
REMARK  108  A    between atoms: _270  and  _271
REMARK  109  A    between atoms: _271  and  _272
REMARK  110  A    between atoms: _281  and  _283
REMARK  111  A    between atoms: _283  and  _284
REMARK  112  A    between atoms: _283  and  _286
REMARK  113  A    between atoms: _286  and  _287
REMARK  114  A    between atoms: _287  and  _288
REMARK  115  A    between atoms: _288  and  _289
REMARK  116  A    between atoms: _289  and  _290
REMARK  117  A    between atoms: _294  and  _296
REMARK  118  A    between atoms: _296  and  _297
REMARK  119  A    between atoms: _296  and  _299
REMARK  120  A    between atoms: _299  and  _300
REMARK  121  A    between atoms: _303  and  _305
REMARK  122  A    between atoms: _305  and  _306
REMARK  123  A    between atoms: _305  and  _308
REMARK  124  A    between atoms: _308  and  _309
REMARK  125  A    between atoms: _314  and  _316
REMARK  126  A    between atoms: _316  and  _317
REMARK  127  A    between atoms: _316  and  _319
REMARK  128  A    between atoms: _319  and  _320
REMARK  129  A    between atoms: _320  and  _321
REMARK  130  A    between atoms: _324  and  _326
REMARK  131  A    between atoms: _326  and  _327
REMARK  132  A    between atoms: _326  and  _329
REMARK  133  A    between atoms: _329  and  _330
REMARK  134  A    between atoms: _330  and  _331
REMARK                            x       y       z     vdW  Elec       q    Type
REMARK                         _______ _______ _______ _____ _____    ______ ____
ROOT
ATOM      1  O   HOH     1      32.105  -4.611 -15.428  0.00  0.00    +0.000 OA
ENDROOT
TORSDOF 0
REMARK  Name = ../refined-set-2016/2r0h/2r0h_pocket.pdb
REMARK  134 active torsions:
REMARK  status: ('A' for Active; 'I' for Inactive)
REMARK    1  A    between atoms: _2  and  _3
REMARK    2  A    between atoms: _8  and  _10
REMARK    3  A    between atoms: _10  and  _11
REMARK    4  A    between atoms: _10  and  _13
REMARK    5  A    between atoms: _13  and  _14
REMARK    6  A    between atoms: _17  and  _19
REMARK    7  A    between atoms: _19  and  _20
REMARK    8  A    between atoms: _22  and  _24
REMARK    9  A    between atoms: _24  and  _25
REMARK   10  A    between atoms: _24  and  _27
REMARK   11  A    between atoms: _27  and  _28
REMARK   12  A    between atoms: _31  and  _33
REMARK   13  A    between atoms: _33  and  _34
REMARK   14  A    between atoms: _33  and  _36
REMARK   15  A    between atoms: _36  and  _37
REMARK   16  A    between atoms: _40  and  _42
REMARK   17  A    between atoms: _42  and  _43
REMARK   18  A    between atoms: _42  and  _45
REMARK   19  A    between atoms: _45  and  _46
REMARK   20  A    between atoms: _51  and  _53
REMARK   21  A    between atoms: _53  and  _54
REMARK   22  A    between atoms: _53  and  _56
REMARK   23  A    between atoms: _56  and  _57
REMARK   24  A    between atoms: _60  and  _62
REMARK   25  A    between atoms: _62  and  _63
REMARK   26  A    between atoms: _62  and  _65
REMARK   27  A    between atoms: _65  and  _66
REMARK   28  A    between atoms: _71  and  _73
REMARK   29  A    between atoms: _73  and  _74
REMARK   30  A    between atoms: _73  and  _76
REMARK   31  A    between atoms: _76  and  _77
REMARK   32  A    between atoms: _82  and  _84
REMARK   33  A    between atoms: _84  and  _85
REMARK   34  A    between atoms: _84  and  _87
REMARK   35  A    between atoms: _90  and  _92
REMARK   36  A    between atoms: _92  and  _93
REMARK   37  A    between atoms: _92  and  _95
REMARK   38  A    between atoms: _95  and  _96
REMARK   39  A    between atoms: _101  and  _103
REMARK   40  A    between atoms: _103  and  _104
REMARK   41  A    between atoms: _103  and  _106
REMARK   42  A    between atoms: _106  and  _107
REMARK   43  A    between atoms: _110  and  _112
REMARK   44  A    between atoms: _112  and  _113
REMARK   45  A    between atoms: _115  and  _117
REMARK   46  A    between atoms: _117  and  _118
REMARK   47  A    between atoms: _117  and  _120
REMARK   48  A    between atoms: _120  and  _121
REMARK   49  A    between atoms: _121  and  _122
REMARK   50  A    between atoms: _122  and  _123
REMARK   51  A    between atoms: _132  and  _134
REMARK   52  A    between atoms: _134  and  _135
REMARK   53  A    between atoms: _134  and  _137
REMARK   54  A    between atoms: _137  and  _138
REMARK   55  A    between atoms: _138  and  _139
REMARK   56  A    between atoms: _142  and  _144
REMARK   57  A    between atoms: _144  and  _145
REMARK   58  A    between atoms: _144  and  _147
REMARK   59  A    between atoms: _150  and  _152
REMARK   60  A    between atoms: _152  and  _153
REMARK   61  A    between atoms: _152  and  _155
REMARK   62  A    between atoms: _155  and  _156
REMARK   63  A    between atoms: _162  and  _164
REMARK   64  A    between atoms: _164  and  _165
REMARK   65  A    between atoms: _164  and  _167
REMARK   66  A    between atoms: _167  and  _168
REMARK   67  A    between atoms: _173  and  _175
REMARK   68  A    between atoms: _175  and  _176
REMARK   69  A    between atoms: _175  and  _178
REMARK   70  A    between atoms: _178  and  _179
REMARK   71  A    between atoms: _181  and  _183
REMARK   72  A    between atoms: _183  and  _184
REMARK   73  A    between atoms: _183  and  _186
REMARK   74  A    between atoms: _186  and  _187
REMARK   75  A    between atoms: _190  and  _192
REMARK   76  A    between atoms: _192  and  _193
REMARK   77  A    between atoms: _192  and  _195
REMARK   78  A    between atoms: _195  and  _196
REMARK   79  A    between atoms: _198  and  _200
REMARK   80  A    between atoms: _200  and  _201
REMARK   81  A    between atoms: _200  and  _203
REMARK   82  A    between atoms: _203  and  _204
REMARK   83  A    between atoms: _204  and  _205
REMARK   84  A    between atoms: _205  and  _206
REMARK   85  A    between atoms: _215  and  _217
REMARK   86  A    between atoms: _217  and  _218
REMARK   87  A    between atoms: _221  and  _222
REMARK   88  A    between atoms: _227  and  _229
REMARK   89  A    between atoms: _229  and  _230
REMARK   90  A    between atoms: _229  and  _232
REMARK   91  A    between atoms: _232  and  _233
REMARK   92  A    between atoms: _233  and  _234
REMARK   93  A    between atoms: _237  and  _239
REMARK   94  A    between atoms: _239  and  _240
REMARK   95  A    between atoms: _239  and  _242
REMARK   96  A    between atoms: _242  and  _243
REMARK   97  A    between atoms: _243  and  _244
REMARK   98  A    between atoms: _247  and  _249
REMARK   99  A    between atoms: _249  and  _250
REMARK  100  A    between atoms: _249  and  _252
REMARK  101  A    between atoms: _252  and  _253
REMARK  102  A    between atoms: _253  and  _254
REMARK  103  A    between atoms: _254  and  _255
REMARK  104  A    between atoms: _264  and  _266
REMARK  105  A    between atoms: _266  and  _267
REMARK  106  A    between atoms: _266  and  _269
REMARK  107  A    between atoms: _269  and  _270
REMARK  108  A    between atoms: _270  and  _271
REMARK  109  A    between atoms: _271  and  _272
REMARK  110  A    between atoms: _281  and  _283
REMARK  111  A    between atoms: _283  and  _284
REMARK  112  A    between atoms: _283  and  _286
REMARK  113  A    between atoms: _286  and  _287
REMARK  114  A    between atoms: _287  and  _288
REMARK  115  A    between atoms: _288  and  _289
REMARK  116  A    between atoms: _289  and  _290
REMARK  117  A    between atoms: _294  and  _296
REMARK  118  A    between atoms: _296  and  _297
REMARK  119  A    between atoms: _296  and  _299
REMARK  120  A    between atoms: _299  and  _300
REMARK  121  A    between atoms: _303  and  _305
REMARK  122  A    between atoms: _305  and  _306
REMARK  123  A    between atoms: _305  and  _308
REMARK  124  A    between atoms: _308  and  _309
REMARK  125  A    between atoms: _314  and  _316
REMARK  126  A    between atoms: _316  and  _317
REMARK  127  A    between atoms: _316  and  _319
REMARK  128  A    between atoms: _319  and  _320
REMARK  129  A    between atoms: _320  and  _321
REMARK  130  A    between atoms: _324  and  _326
REMARK  131  A    between atoms: _326  and  _327
REMARK  132  A    between atoms: _326  and  _329
REMARK  133  A    between atoms: _329  and  _330
REMARK  134  A    between atoms: _330  and  _331
REMARK                            x       y       z     vdW  Elec       q    Type
REMARK                         _______ _______ _______ _____ _____    ______ ____
ROOT
ATOM      1  O   HOH     1      24.559 -17.566  -2.844  0.00  0.00    +0.000 OA
ENDROOT
TORSDOF 0
REMARK  Name = ../refined-set-2016/2r0h/2r0h_pocket.pdb
REMARK  134 active torsions:
REMARK  status: ('A' for Active; 'I' for Inactive)
REMARK    1  A    between atoms: _2  and  _3
REMARK    2  A    between atoms: _8  and  _10
REMARK    3  A    between atoms: _10  and  _11
REMARK    4  A    between atoms: _10  and  _13
REMARK    5  A    between atoms: _13  and  _14
REMARK    6  A    between atoms: _17  and  _19
REMARK    7  A    between atoms: _19  and  _20
REMARK    8  A    between atoms: _22  and  _24
REMARK    9  A    between atoms: _24  and  _25
REMARK   10  A    between atoms: _24  and  _27
REMARK   11  A    between atoms: _27  and  _28
REMARK   12  A    between atoms: _31  and  _33
REMARK   13  A    between atoms: _33  and  _34
REMARK   14  A    between atoms: _33  and  _36
REMARK   15  A    between atoms: _36  and  _37
REMARK   16  A    between atoms: _40  and  _42
REMARK   17  A    between atoms: _42  and  _43
REMARK   18  A    between atoms: _42  and  _45
REMARK   19  A    between atoms: _45  and  _46
REMARK   20  A    between atoms: _51  and  _53
REMARK   21  A    between atoms: _53  and  _54
REMARK   22  A    between atoms: _53  and  _56
REMARK   23  A    between atoms: _56  and  _57
REMARK   24  A    between atoms: _60  and  _62
REMARK   25  A    between atoms: _62  and  _63
REMARK   26  A    between atoms: _62  and  _65
REMARK   27  A    between atoms: _65  and  _66
REMARK   28  A    between atoms: _71  and  _73
REMARK   29  A    between atoms: _73  and  _74
REMARK   30  A    between atoms: _73  and  _76
REMARK   31  A    between atoms: _76  and  _77
REMARK   32  A    between atoms: _82  and  _84
REMARK   33  A    between atoms: _84  and  _85
REMARK   34  A    between atoms: _84  and  _87
REMARK   35  A    between atoms: _90  and  _92
REMARK   36  A    between atoms: _92  and  _93
REMARK   37  A    between atoms: _92  and  _95
REMARK   38  A    between atoms: _95  and  _96
REMARK   39  A    between atoms: _101  and  _103
REMARK   40  A    between atoms: _103  and  _104
REMARK   41  A    between atoms: _103  and  _106
REMARK   42  A    between atoms: _106  and  _107
REMARK   43  A    between atoms: _110  and  _112
REMARK   44  A    between atoms: _112  and  _113
REMARK   45  A    between atoms: _115  and  _117
REMARK   46  A    between atoms: _117  and  _118
REMARK   47  A    between atoms: _117  and  _120
REMARK   48  A    between atoms: _120  and  _121
REMARK   49  A    between atoms: _121  and  _122
REMARK   50  A    between atoms: _122  and  _123
REMARK   51  A    between atoms: _132  and  _134
REMARK   52  A    between atoms: _134  and  _135
REMARK   53  A    between atoms: _134  and  _137
REMARK   54  A    between atoms: _137  and  _138
REMARK   55  A    between atoms: _138  and  _139
REMARK   56  A    between atoms: _142  and  _144
REMARK   57  A    between atoms: _144  and  _145
REMARK   58  A    between atoms: _144  and  _147
REMARK   59  A    between atoms: _150  and  _152
REMARK   60  A    between atoms: _152  and  _153
REMARK   61  A    between atoms: _152  and  _155
REMARK   62  A    between atoms: _155  and  _156
REMARK   63  A    between atoms: _162  and  _164
REMARK   64  A    between atoms: _164  and  _165
REMARK   65  A    between atoms: _164  and  _167
REMARK   66  A    between atoms: _167  and  _168
REMARK   67  A    between atoms: _173  and  _175
REMARK   68  A    between atoms: _175  and  _176
REMARK   69  A    between atoms: _175  and  _178
REMARK   70  A    between atoms: _178  and  _179
REMARK   71  A    between atoms: _181  and  _183
REMARK   72  A    between atoms: _183  and  _184
REMARK   73  A    between atoms: _183  and  _186
REMARK   74  A    between atoms: _186  and  _187
REMARK   75  A    between atoms: _190  and  _192
REMARK   76  A    between atoms: _192  and  _193
REMARK   77  A    between atoms: _192  and  _195
REMARK   78  A    between atoms: _195  and  _196
REMARK   79  A    between atoms: _198  and  _200
REMARK   80  A    between atoms: _200  and  _201
REMARK   81  A    between atoms: _200  and  _203
REMARK   82  A    between atoms: _203  and  _204
REMARK   83  A    between atoms: _204  and  _205
REMARK   84  A    between atoms: _205  and  _206
REMARK   85  A    between atoms: _215  and  _217
REMARK   86  A    between atoms: _217  and  _218
REMARK   87  A    between atoms: _221  and  _222
REMARK   88  A    between atoms: _227  and  _229
REMARK   89  A    between atoms: _229  and  _230
REMARK   90  A    between atoms: _229  and  _232
REMARK   91  A    between atoms: _232  and  _233
REMARK   92  A    between atoms: _233  and  _234
REMARK   93  A    between atoms: _237  and  _239
REMARK   94  A    between atoms: _239  and  _240
REMARK   95  A    between atoms: _239  and  _242
REMARK   96  A    between atoms: _242  and  _243
REMARK   97  A    between atoms: _243  and  _244
REMARK   98  A    between atoms: _247  and  _249
REMARK   99  A    between atoms: _249  and  _250
REMARK  100  A    between atoms: _249  and  _252
REMARK  101  A    between atoms: _252  and  _253
REMARK  102  A    between atoms: _253  and  _254
REMARK  103  A    between atoms: _254  and  _255
REMARK  104  A    between atoms: _264  and  _266
REMARK  105  A    between atoms: _266  and  _267
REMARK  106  A    between atoms: _266  and  _269
REMARK  107  A    between atoms: _269  and  _270
REMARK  108  A    between atoms: _270  and  _271
REMARK  109  A    between atoms: _271  and  _272
REMARK  110  A    between atoms: _281  and  _283
REMARK  111  A    between atoms: _283  and  _284
REMARK  112  A    between atoms: _283  and  _286
REMARK  113  A    between atoms: _286  and  _287
REMARK  114  A    between atoms: _287  and  _288
REMARK  115  A    between atoms: _288  and  _289
REMARK  116  A    between atoms: _289  and  _290
REMARK  117  A    between atoms: _294  and  _296
REMARK  118  A    between atoms: _296  and  _297
REMARK  119  A    between atoms: _296  and  _299
REMARK  120  A    between atoms: _299  and  _300
REMARK  121  A    between atoms: _303  and  _305
REMARK  122  A    between atoms: _305  and  _306
REMARK  123  A    between atoms: _305  and  _308
REMARK  124  A    between atoms: _308  and  _309
REMARK  125  A    between atoms: _314  and  _316
REMARK  126  A    between atoms: _316  and  _317
REMARK  127  A    between atoms: _316  and  _319
REMARK  128  A    between atoms: _319  and  _320
REMARK  129  A    between atoms: _320  and  _321
REMARK  130  A    between atoms: _324  and  _326
REMARK  131  A    between atoms: _326  and  _327
REMARK  132  A    between atoms: _326  and  _329
REMARK  133  A    between atoms: _329  and  _330
REMARK  134  A    between atoms: _330  and  _331
REMARK                            x       y       z     vdW  Elec       q    Type
REMARK                         _______ _______ _______ _____ _____    ______ ____
ROOT
ATOM      1  O   HOH     1      30.073 -14.493  -6.681  0.00  0.00    +0.000 OA
ENDROOT
TORSDOF 0
REMARK  Name = ../refined-set-2016/2r0h/2r0h_pocket.pdb
REMARK  134 active torsions:
REMARK  status: ('A' for Active; 'I' for Inactive)
REMARK    1  A    between atoms: _2  and  _3
REMARK    2  A    between atoms: _8  and  _10
REMARK    3  A    between atoms: _10  and  _11
REMARK    4  A    between atoms: _10  and  _13
REMARK    5  A    between atoms: _13  and  _14
REMARK    6  A    between atoms: _17  and  _19
REMARK    7  A    between atoms: _19  and  _20
REMARK    8  A    between atoms: _22  and  _24
REMARK    9  A    between atoms: _24  and  _25
REMARK   10  A    between atoms: _24  and  _27
REMARK   11  A    between atoms: _27  and  _28
REMARK   12  A    between atoms: _31  and  _33
REMARK   13  A    between atoms: _33  and  _34
REMARK   14  A    between atoms: _33  and  _36
REMARK   15  A    between atoms: _36  and  _37
REMARK   16  A    between atoms: _40  and  _42
REMARK   17  A    between atoms: _42  and  _43
REMARK   18  A    between atoms: _42  and  _45
REMARK   19  A    between atoms: _45  and  _46
REMARK   20  A    between atoms: _51  and  _53
REMARK   21  A    between atoms: _53  and  _54
REMARK   22  A    between atoms: _53  and  _56
REMARK   23  A    between atoms: _56  and  _57
REMARK   24  A    between atoms: _60  and  _62
REMARK   25  A    between atoms: _62  and  _63
REMARK   26  A    between atoms: _62  and  _65
REMARK   27  A    between atoms: _65  and  _66
REMARK   28  A    between atoms: _71  and  _73
REMARK   29  A    between atoms: _73  and  _74
REMARK   30  A    between atoms: _73  and  _76
REMARK   31  A    between atoms: _76  and  _77
REMARK   32  A    between atoms: _82  and  _84
REMARK   33  A    between atoms: _84  and  _85
REMARK   34  A    between atoms: _84  and  _87
REMARK   35  A    between atoms: _90  and  _92
REMARK   36  A    between atoms: _92  and  _93
REMARK   37  A    between atoms: _92  and  _95
REMARK   38  A    between atoms: _95  and  _96
REMARK   39  A    between atoms: _101  and  _103
REMARK   40  A    between atoms: _103  and  _104
REMARK   41  A    between atoms: _103  and  _106
REMARK   42  A    between atoms: _106  and  _107
REMARK   43  A    between atoms: _110  and  _112
REMARK   44  A    between atoms: _112  and  _113
REMARK   45  A    between atoms: _115  and  _117
REMARK   46  A    between atoms: _117  and  _118
REMARK   47  A    between atoms: _117  and  _120
REMARK   48  A    between atoms: _120  and  _121
REMARK   49  A    between atoms: _121  and  _122
REMARK   50  A    between atoms: _122  and  _123
REMARK   51  A    between atoms: _132  and  _134
REMARK   52  A    between atoms: _134  and  _135
REMARK   53  A    between atoms: _134  and  _137
REMARK   54  A    between atoms: _137  and  _138
REMARK   55  A    between atoms: _138  and  _139
REMARK   56  A    between atoms: _142  and  _144
REMARK   57  A    between atoms: _144  and  _145
REMARK   58  A    between atoms: _144  and  _147
REMARK   59  A    between atoms: _150  and  _152
REMARK   60  A    between atoms: _152  and  _153
REMARK   61  A    between atoms: _152  and  _155
REMARK   62  A    between atoms: _155  and  _156
REMARK   63  A    between atoms: _162  and  _164
REMARK   64  A    between atoms: _164  and  _165
REMARK   65  A    between atoms: _164  and  _167
REMARK   66  A    between atoms: _167  and  _168
REMARK   67  A    between atoms: _173  and  _175
REMARK   68  A    between atoms: _175  and  _176
REMARK   69  A    between atoms: _175  and  _178
REMARK   70  A    between atoms: _178  and  _179
REMARK   71  A    between atoms: _181  and  _183
REMARK   72  A    between atoms: _183  and  _184
REMARK   73  A    between atoms: _183  and  _186
REMARK   74  A    between atoms: _186  and  _187
REMARK   75  A    between atoms: _190  and  _192
REMARK   76  A    between atoms: _192  and  _193
REMARK   77  A    between atoms: _192  and  _195
REMARK   78  A    between atoms: _195  and  _196
REMARK   79  A    between atoms: _198  and  _200
REMARK   80  A    between atoms: _200  and  _201
REMARK   81  A    between atoms: _200  and  _203
REMARK   82  A    between atoms: _203  and  _204
REMARK   83  A    between atoms: _204  and  _205
REMARK   84  A    between atoms: _205  and  _206
REMARK   85  A    between atoms: _215  and  _217
REMARK   86  A    between atoms: _217  and  _218
REMARK   87  A    between atoms: _221  and  _222
REMARK   88  A    between atoms: _227  and  _229
REMARK   89  A    between atoms: _229  and  _230
REMARK   90  A    between atoms: _229  and  _232
REMARK   91  A    between atoms: _232  and  _233
REMARK   92  A    between atoms: _233  and  _234
REMARK   93  A    between atoms: _237  and  _239
REMARK   94  A    between atoms: _239  and  _240
REMARK   95  A    between atoms: _239  and  _242
REMARK   96  A    between atoms: _242  and  _243
REMARK   97  A    between atoms: _243  and  _244
REMARK   98  A    between atoms: _247  and  _249
REMARK   99  A    between atoms: _249  and  _250
REMARK  100  A    between atoms: _249  and  _252
REMARK  101  A    between atoms: _252  and  _253
REMARK  102  A    between atoms: _253  and  _254
REMARK  103  A    between atoms: _254  and  _255
REMARK  104  A    between atoms: _264  and  _266
REMARK  105  A    between atoms: _266  and  _267
REMARK  106  A    between atoms: _266  and  _269
REMARK  107  A    between atoms: _269  and  _270
REMARK  108  A    between atoms: _270  and  _271
REMARK  109  A    between atoms: _271  and  _272
REMARK  110  A    between atoms: _281  and  _283
REMARK  111  A    between atoms: _283  and  _284
REMARK  112  A    between atoms: _283  and  _286
REMARK  113  A    between atoms: _286  and  _287
REMARK  114  A    between atoms: _287  and  _288
REMARK  115  A    between atoms: _288  and  _289
REMARK  116  A    between atoms: _289  and  _290
REMARK  117  A    between atoms: _294  and  _296
REMARK  118  A    between atoms: _296  and  _297
REMARK  119  A    between atoms: _296  and  _299
REMARK  120  A    between atoms: _299  and  _300
REMARK  121  A    between atoms: _303  and  _305
REMARK  122  A    between atoms: _305  and  _306
REMARK  123  A    between atoms: _305  and  _308
REMARK  124  A    between atoms: _308  and  _309
REMARK  125  A    between atoms: _314  and  _316
REMARK  126  A    between atoms: _316  and  _317
REMARK  127  A    between atoms: _316  and  _319
REMARK  128  A    between atoms: _319  and  _320
REMARK  129  A    between atoms: _320  and  _321
REMARK  130  A    between atoms: _324  and  _326
REMARK  131  A    between atoms: _326  and  _327
REMARK  132  A    between atoms: _326  and  _329
REMARK  133  A    between atoms: _329  and  _330
REMARK  134  A    between atoms: _330  and  _331
REMARK                            x       y       z     vdW  Elec       q    Type
REMARK                         _______ _______ _______ _____ _____    ______ ____
ROOT
ATOM      1  O   HOH     1      24.770 -13.014  -9.535  0.00  0.00    +0.000 OA
ENDROOT
TORSDOF 0
REMARK  Name = ../refined-set-2016/2r0h/2r0h_pocket.pdb
REMARK  134 active torsions:
REMARK  status: ('A' for Active; 'I' for Inactive)
REMARK    1  A    between atoms: _2  and  _3
REMARK    2  A    between atoms: _8  and  _10
REMARK    3  A    between atoms: _10  and  _11
REMARK    4  A    between atoms: _10  and  _13
REMARK    5  A    between atoms: _13  and  _14
REMARK    6  A    between atoms: _17  and  _19
REMARK    7  A    between atoms: _19  and  _20
REMARK    8  A    between atoms: _22  and  _24
REMARK    9  A    between atoms: _24  and  _25
REMARK   10  A    between atoms: _24  and  _27
REMARK   11  A    between atoms: _27  and  _28
REMARK   12  A    between atoms: _31  and  _33
REMARK   13  A    between atoms: _33  and  _34
REMARK   14  A    between atoms: _33  and  _36
REMARK   15  A    between atoms: _36  and  _37
REMARK   16  A    between atoms: _40  and  _42
REMARK   17  A    between atoms: _42  and  _43
REMARK   18  A    between atoms: _42  and  _45
REMARK   19  A    between atoms: _45  and  _46
REMARK   20  A    between atoms: _51  and  _53
REMARK   21  A    between atoms: _53  and  _54
REMARK   22  A    between atoms: _53  and  _56
REMARK   23  A    between atoms: _56  and  _57
REMARK   24  A    between atoms: _60  and  _62
REMARK   25  A    between atoms: _62  and  _63
REMARK   26  A    between atoms: _62  and  _65
REMARK   27  A    between atoms: _65  and  _66
REMARK   28  A    between atoms: _71  and  _73
REMARK   29  A    between atoms: _73  and  _74
REMARK   30  A    between atoms: _73  and  _76
REMARK   31  A    between atoms: _76  and  _77
REMARK   32  A    between atoms: _82  and  _84
REMARK   33  A    between atoms: _84  and  _85
REMARK   34  A    between atoms: _84  and  _87
REMARK   35  A    between atoms: _90  and  _92
REMARK   36  A    between atoms: _92  and  _93
REMARK   37  A    between atoms: _92  and  _95
REMARK   38  A    between atoms: _95  and  _96
REMARK   39  A    between atoms: _101  and  _103
REMARK   40  A    between atoms: _103  and  _104
REMARK   41  A    between atoms: _103  and  _106
REMARK   42  A    between atoms: _106  and  _107
REMARK   43  A    between atoms: _110  and  _112
REMARK   44  A    between atoms: _112  and  _113
REMARK   45  A    between atoms: _115  and  _117
REMARK   46  A    between atoms: _117  and  _118
REMARK   47  A    between atoms: _117  and  _120
REMARK   48  A    between atoms: _120  and  _121
REMARK   49  A    between atoms: _121  and  _122
REMARK   50  A    between atoms: _122  and  _123
REMARK   51  A    between atoms: _132  and  _134
REMARK   52  A    between atoms: _134  and  _135
REMARK   53  A    between atoms: _134  and  _137
REMARK   54  A    between atoms: _137  and  _138
REMARK   55  A    between atoms: _138  and  _139
REMARK   56  A    between atoms: _142  and  _144
REMARK   57  A    between atoms: _144  and  _145
REMARK   58  A    between atoms: _144  and  _147
REMARK   59  A    between atoms: _150  and  _152
REMARK   60  A    between atoms: _152  and  _153
REMARK   61  A    between atoms: _152  and  _155
REMARK   62  A    between atoms: _155  and  _156
REMARK   63  A    between atoms: _162  and  _164
REMARK   64  A    between atoms: _164  and  _165
REMARK   65  A    between atoms: _164  and  _167
REMARK   66  A    between atoms: _167  and  _168
REMARK   67  A    between atoms: _173  and  _175
REMARK   68  A    between atoms: _175  and  _176
REMARK   69  A    between atoms: _175  and  _178
REMARK   70  A    between atoms: _178  and  _179
REMARK   71  A    between atoms: _181  and  _183
REMARK   72  A    between atoms: _183  and  _184
REMARK   73  A    between atoms: _183  and  _186
REMARK   74  A    between atoms: _186  and  _187
REMARK   75  A    between atoms: _190  and  _192
REMARK   76  A    between atoms: _192  and  _193
REMARK   77  A    between atoms: _192  and  _195
REMARK   78  A    between atoms: _195  and  _196
REMARK   79  A    between atoms: _198  and  _200
REMARK   80  A    between atoms: _200  and  _201
REMARK   81  A    between atoms: _200  and  _203
REMARK   82  A    between atoms: _203  and  _204
REMARK   83  A    between atoms: _204  and  _205
REMARK   84  A    between atoms: _205  and  _206
REMARK   85  A    between atoms: _215  and  _217
REMARK   86  A    between atoms: _217  and  _218
REMARK   87  A    between atoms: _221  and  _222
REMARK   88  A    between atoms: _227  and  _229
REMARK   89  A    between atoms: _229  and  _230
REMARK   90  A    between atoms: _229  and  _232
REMARK   91  A    between atoms: _232  and  _233
REMARK   92  A    between atoms: _233  and  _234
REMARK   93  A    between atoms: _237  and  _239
REMARK   94  A    between atoms: _239  and  _240
REMARK   95  A    between atoms: _239  and  _242
REMARK   96  A    between atoms: _242  and  _243
REMARK   97  A    between atoms: _243  and  _244
REMARK   98  A    between atoms: _247  and  _249
REMARK   99  A    between atoms: _249  and  _250
REMARK  100  A    between atoms: _249  and  _252
REMARK  101  A    between atoms: _252  and  _253
REMARK  102  A    between atoms: _253  and  _254
REMARK  103  A    between atoms: _254  and  _255
REMARK  104  A    between atoms: _264  and  _266
REMARK  105  A    between atoms: _266  and  _267
REMARK  106  A    between atoms: _266  and  _269
REMARK  107  A    between atoms: _269  and  _270
REMARK  108  A    between atoms: _270  and  _271
REMARK  109  A    between atoms: _271  and  _272
REMARK  110  A    between atoms: _281  and  _283
REMARK  111  A    between atoms: _283  and  _284
REMARK  112  A    between atoms: _283  and  _286
REMARK  113  A    between atoms: _286  and  _287
REMARK  114  A    between atoms: _287  and  _288
REMARK  115  A    between atoms: _288  and  _289
REMARK  116  A    between atoms: _289  and  _290
REMARK  117  A    between atoms: _294  and  _296
REMARK  118  A    between atoms: _296  and  _297
REMARK  119  A    between atoms: _296  and  _299
REMARK  120  A    between atoms: _299  and  _300
REMARK  121  A    between atoms: _303  and  _305
REMARK  122  A    between atoms: _305  and  _306
REMARK  123  A    between atoms: _305  and  _308
REMARK  124  A    between atoms: _308  and  _309
REMARK  125  A    between atoms: _314  and  _316
REMARK  126  A    between atoms: _316  and  _317
REMARK  127  A    between atoms: _316  and  _319
REMARK  128  A    between atoms: _319  and  _320
REMARK  129  A    between atoms: _320  and  _321
REMARK  130  A    between atoms: _324  and  _326
REMARK  131  A    between atoms: _326  and  _327
REMARK  132  A    between atoms: _326  and  _329
REMARK  133  A    between atoms: _329  and  _330
REMARK  134  A    between atoms: _330  and  _331
REMARK                            x       y       z     vdW  Elec       q    Type
REMARK                         _______ _______ _______ _____ _____    ______ ____
ROOT
ATOM      1  O   HOH     1      23.711 -11.571 -11.836  0.00  0.00    +0.000 OA
ENDROOT
TORSDOF 0
REMARK  Name = ../refined-set-2016/2r0h/2r0h_pocket.pdb
REMARK  134 active torsions:
REMARK  status: ('A' for Active; 'I' for Inactive)
REMARK    1  A    between atoms: _2  and  _3
REMARK    2  A    between atoms: _8  and  _10
REMARK    3  A    between atoms: _10  and  _11
REMARK    4  A    between atoms: _10  and  _13
REMARK    5  A    between atoms: _13  and  _14
REMARK    6  A    between atoms: _17  and  _19
REMARK    7  A    between atoms: _19  and  _20
REMARK    8  A    between atoms: _22  and  _24
REMARK    9  A    between atoms: _24  and  _25
REMARK   10  A    between atoms: _24  and  _27
REMARK   11  A    between atoms: _27  and  _28
REMARK   12  A    between atoms: _31  and  _33
REMARK   13  A    between atoms: _33  and  _34
REMARK   14  A    between atoms: _33  and  _36
REMARK   15  A    between atoms: _36  and  _37
REMARK   16  A    between atoms: _40  and  _42
REMARK   17  A    between atoms: _42  and  _43
REMARK   18  A    between atoms: _42  and  _45
REMARK   19  A    between atoms: _45  and  _46
REMARK   20  A    between atoms: _51  and  _53
REMARK   21  A    between atoms: _53  and  _54
REMARK   22  A    between atoms: _53  and  _56
REMARK   23  A    between atoms: _56  and  _57
REMARK   24  A    between atoms: _60  and  _62
REMARK   25  A    between atoms: _62  and  _63
REMARK   26  A    between atoms: _62  and  _65
REMARK   27  A    between atoms: _65  and  _66
REMARK   28  A    between atoms: _71  and  _73
REMARK   29  A    between atoms: _73  and  _74
REMARK   30  A    between atoms: _73  and  _76
REMARK   31  A    between atoms: _76  and  _77
REMARK   32  A    between atoms: _82  and  _84
REMARK   33  A    between atoms: _84  and  _85
REMARK   34  A    between atoms: _84  and  _87
REMARK   35  A    between atoms: _90  and  _92
REMARK   36  A    between atoms: _92  and  _93
REMARK   37  A    between atoms: _92  and  _95
REMARK   38  A    between atoms: _95  and  _96
REMARK   39  A    between atoms: _101  and  _103
REMARK   40  A    between atoms: _103  and  _104
REMARK   41  A    between atoms: _103  and  _106
REMARK   42  A    between atoms: _106  and  _107
REMARK   43  A    between atoms: _110  and  _112
REMARK   44  A    between atoms: _112  and  _113
REMARK   45  A    between atoms: _115  and  _117
REMARK   46  A    between atoms: _117  and  _118
REMARK   47  A    between atoms: _117  and  _120
REMARK   48  A    between atoms: _120  and  _121
REMARK   49  A    between atoms: _121  and  _122
REMARK   50  A    between atoms: _122  and  _123
REMARK   51  A    between atoms: _132  and  _134
REMARK   52  A    between atoms: _134  and  _135
REMARK   53  A    between atoms: _134  and  _137
REMARK   54  A    between atoms: _137  and  _138
REMARK   55  A    between atoms: _138  and  _139
REMARK   56  A    between atoms: _142  and  _144
REMARK   57  A    between atoms: _144  and  _145
REMARK   58  A    between atoms: _144  and  _147
REMARK   59  A    between atoms: _150  and  _152
REMARK   60  A    between atoms: _152  and  _153
REMARK   61  A    between atoms: _152  and  _155
REMARK   62  A    between atoms: _155  and  _156
REMARK   63  A    between atoms: _162  and  _164
REMARK   64  A    between atoms: _164  and  _165
REMARK   65  A    between atoms: _164  and  _167
REMARK   66  A    between atoms: _167  and  _168
REMARK   67  A    between atoms: _173  and  _175
REMARK   68  A    between atoms: _175  and  _176
REMARK   69  A    between atoms: _175  and  _178
REMARK   70  A    between atoms: _178  and  _179
REMARK   71  A    between atoms: _181  and  _183
REMARK   72  A    between atoms: _183  and  _184
REMARK   73  A    between atoms: _183  and  _186
REMARK   74  A    between atoms: _186  and  _187
REMARK   75  A    between atoms: _190  and  _192
REMARK   76  A    between atoms: _192  and  _193
REMARK   77  A    between atoms: _192  and  _195
REMARK   78  A    between atoms: _195  and  _196
REMARK   79  A    between atoms: _198  and  _200
REMARK   80  A    between atoms: _200  and  _201
REMARK   81  A    between atoms: _200  and  _203
REMARK   82  A    between atoms: _203  and  _204
REMARK   83  A    between atoms: _204  and  _205
REMARK   84  A    between atoms: _205  and  _206
REMARK   85  A    between atoms: _215  and  _217
REMARK   86  A    between atoms: _217  and  _218
REMARK   87  A    between atoms: _221  and  _222
REMARK   88  A    between atoms: _227  and  _229
REMARK   89  A    between atoms: _229  and  _230
REMARK   90  A    between atoms: _229  and  _232
REMARK   91  A    between atoms: _232  and  _233
REMARK   92  A    between atoms: _233  and  _234
REMARK   93  A    between atoms: _237  and  _239
REMARK   94  A    between atoms: _239  and  _240
REMARK   95  A    between atoms: _239  and  _242
REMARK   96  A    between atoms: _242  and  _243
REMARK   97  A    between atoms: _243  and  _244
REMARK   98  A    between atoms: _247  and  _249
REMARK   99  A    between atoms: _249  and  _250
REMARK  100  A    between atoms: _249  and  _252
REMARK  101  A    between atoms: _252  and  _253
REMARK  102  A    between atoms: _253  and  _254
REMARK  103  A    between atoms: _254  and  _255
REMARK  104  A    between atoms: _264  and  _266
REMARK  105  A    between atoms: _266  and  _267
REMARK  106  A    between atoms: _266  and  _269
REMARK  107  A    between atoms: _269  and  _270
REMARK  108  A    between atoms: _270  and  _271
REMARK  109  A    between atoms: _271  and  _272
REMARK  110  A    between atoms: _281  and  _283
REMARK  111  A    between atoms: _283  and  _284
REMARK  112  A    between atoms: _283  and  _286
REMARK  113  A    between atoms: _286  and  _287
REMARK  114  A    between atoms: _287  and  _288
REMARK  115  A    between atoms: _288  and  _289
REMARK  116  A    between atoms: _289  and  _290
REMARK  117  A    between atoms: _294  and  _296
REMARK  118  A    between atoms: _296  and  _297
REMARK  119  A    between atoms: _296  and  _299
REMARK  120  A    between atoms: _299  and  _300
REMARK  121  A    between atoms: _303  and  _305
REMARK  122  A    between atoms: _305  and  _306
REMARK  123  A    between atoms: _305  and  _308
REMARK  124  A    between atoms: _308  and  _309
REMARK  125  A    between atoms: _314  and  _316
REMARK  126  A    between atoms: _316  and  _317
REMARK  127  A    between atoms: _316  and  _319
REMARK  128  A    between atoms: _319  and  _320
REMARK  129  A    between atoms: _320  and  _321
REMARK  130  A    between atoms: _324  and  _326
REMARK  131  A    between atoms: _326  and  _327
REMARK  132  A    between atoms: _326  and  _329
REMARK  133  A    between atoms: _329  and  _330
REMARK  134  A    between atoms: _330  and  _331
REMARK                            x       y       z     vdW  Elec       q    Type
REMARK                         _______ _______ _______ _____ _____    ______ ____
ROOT
ATOM      1  O   HOH     1      25.793 -10.326 -15.125  0.00  0.00    +0.000 OA
ENDROOT
TORSDOF 0
REMARK  Name = ../refined-set-2016/2r0h/2r0h_pocket.pdb
REMARK  134 active torsions:
REMARK  status: ('A' for Active; 'I' for Inactive)
REMARK    1  A    between atoms: _2  and  _3
REMARK    2  A    between atoms: _8  and  _10
REMARK    3  A    between atoms: _10  and  _11
REMARK    4  A    between atoms: _10  and  _13
REMARK    5  A    between atoms: _13  and  _14
REMARK    6  A    between atoms: _17  and  _19
REMARK    7  A    between atoms: _19  and  _20
REMARK    8  A    between atoms: _22  and  _24
REMARK    9  A    between atoms: _24  and  _25
REMARK   10  A    between atoms: _24  and  _27
REMARK   11  A    between atoms: _27  and  _28
REMARK   12  A    between atoms: _31  and  _33
REMARK   13  A    between atoms: _33  and  _34
REMARK   14  A    between atoms: _33  and  _36
REMARK   15  A    between atoms: _36  and  _37
REMARK   16  A    between atoms: _40  and  _42
REMARK   17  A    between atoms: _42  and  _43
REMARK   18  A    between atoms: _42  and  _45
REMARK   19  A    between atoms: _45  and  _46
REMARK   20  A    between atoms: _51  and  _53
REMARK   21  A    between atoms: _53  and  _54
REMARK   22  A    between atoms: _53  and  _56
REMARK   23  A    between atoms: _56  and  _57
REMARK   24  A    between atoms: _60  and  _62
REMARK   25  A    between atoms: _62  and  _63
REMARK   26  A    between atoms: _62  and  _65
REMARK   27  A    between atoms: _65  and  _66
REMARK   28  A    between atoms: _71  and  _73
REMARK   29  A    between atoms: _73  and  _74
REMARK   30  A    between atoms: _73  and  _76
REMARK   31  A    between atoms: _76  and  _77
REMARK   32  A    between atoms: _82  and  _84
REMARK   33  A    between atoms: _84  and  _85
REMARK   34  A    between atoms: _84  and  _87
REMARK   35  A    between atoms: _90  and  _92
REMARK   36  A    between atoms: _92  and  _93
REMARK   37  A    between atoms: _92  and  _95
REMARK   38  A    between atoms: _95  and  _96
REMARK   39  A    between atoms: _101  and  _103
REMARK   40  A    between atoms: _103  and  _104
REMARK   41  A    between atoms: _103  and  _106
REMARK   42  A    between atoms: _106  and  _107
REMARK   43  A    between atoms: _110  and  _112
REMARK   44  A    between atoms: _112  and  _113
REMARK   45  A    between atoms: _115  and  _117
REMARK   46  A    between atoms: _117  and  _118
REMARK   47  A    between atoms: _117  and  _120
REMARK   48  A    between atoms: _120  and  _121
REMARK   49  A    between atoms: _121  and  _122
REMARK   50  A    between atoms: _122  and  _123
REMARK   51  A    between atoms: _132  and  _134
REMARK   52  A    between atoms: _134  and  _135
REMARK   53  A    between atoms: _134  and  _137
REMARK   54  A    between atoms: _137  and  _138
REMARK   55  A    between atoms: _138  and  _139
REMARK   56  A    between atoms: _142  and  _144
REMARK   57  A    between atoms: _144  and  _145
REMARK   58  A    between atoms: _144  and  _147
REMARK   59  A    between atoms: _150  and  _152
REMARK   60  A    between atoms: _152  and  _153
REMARK   61  A    between atoms: _152  and  _155
REMARK   62  A    between atoms: _155  and  _156
REMARK   63  A    between atoms: _162  and  _164
REMARK   64  A    between atoms: _164  and  _165
REMARK   65  A    between atoms: _164  and  _167
REMARK   66  A    between atoms: _167  and  _168
REMARK   67  A    between atoms: _173  and  _175
REMARK   68  A    between atoms: _175  and  _176
REMARK   69  A    between atoms: _175  and  _178
REMARK   70  A    between atoms: _178  and  _179
REMARK   71  A    between atoms: _181  and  _183
REMARK   72  A    between atoms: _183  and  _184
REMARK   73  A    between atoms: _183  and  _186
REMARK   74  A    between atoms: _186  and  _187
REMARK   75  A    between atoms: _190  and  _192
REMARK   76  A    between atoms: _192  and  _193
REMARK   77  A    between atoms: _192  and  _195
REMARK   78  A    between atoms: _195  and  _196
REMARK   79  A    between atoms: _198  and  _200
REMARK   80  A    between atoms: _200  and  _201
REMARK   81  A    between atoms: _200  and  _203
REMARK   82  A    between atoms: _203  and  _204
REMARK   83  A    between atoms: _204  and  _205
REMARK   84  A    between atoms: _205  and  _206
REMARK   85  A    between atoms: _215  and  _217
REMARK   86  A    between atoms: _217  and  _218
REMARK   87  A    between atoms: _221  and  _222
REMARK   88  A    between atoms: _227  and  _229
REMARK   89  A    between atoms: _229  and  _230
REMARK   90  A    between atoms: _229  and  _232
REMARK   91  A    between atoms: _232  and  _233
REMARK   92  A    between atoms: _233  and  _234
REMARK   93  A    between atoms: _237  and  _239
REMARK   94  A    between atoms: _239  and  _240
REMARK   95  A    between atoms: _239  and  _242
REMARK   96  A    between atoms: _242  and  _243
REMARK   97  A    between atoms: _243  and  _244
REMARK   98  A    between atoms: _247  and  _249
REMARK   99  A    between atoms: _249  and  _250
REMARK  100  A    between atoms: _249  and  _252
REMARK  101  A    between atoms: _252  and  _253
REMARK  102  A    between atoms: _253  and  _254
REMARK  103  A    between atoms: _254  and  _255
REMARK  104  A    between atoms: _264  and  _266
REMARK  105  A    between atoms: _266  and  _267
REMARK  106  A    between atoms: _266  and  _269
REMARK  107  A    between atoms: _269  and  _270
REMARK  108  A    between atoms: _270  and  _271
REMARK  109  A    between atoms: _271  and  _272
REMARK  110  A    between atoms: _281  and  _283
REMARK  111  A    between atoms: _283  and  _284
REMARK  112  A    between atoms: _283  and  _286
REMARK  113  A    between atoms: _286  and  _287
REMARK  114  A    between atoms: _287  and  _288
REMARK  115  A    between atoms: _288  and  _289
REMARK  116  A    between atoms: _289  and  _290
REMARK  117  A    between atoms: _294  and  _296
REMARK  118  A    between atoms: _296  and  _297
REMARK  119  A    between atoms: _296  and  _299
REMARK  120  A    between atoms: _299  and  _300
REMARK  121  A    between atoms: _303  and  _305
REMARK  122  A    between atoms: _305  and  _306
REMARK  123  A    between atoms: _305  and  _308
REMARK  124  A    between atoms: _308  and  _309
REMARK  125  A    between atoms: _314  and  _316
REMARK  126  A    between atoms: _316  and  _317
REMARK  127  A    between atoms: _316  and  _319
REMARK  128  A    between atoms: _319  and  _320
REMARK  129  A    between atoms: _320  and  _321
REMARK  130  A    between atoms: _324  and  _326
REMARK  131  A    between atoms: _326  and  _327
REMARK  132  A    between atoms: _326  and  _329
REMARK  133  A    between atoms: _329  and  _330
REMARK  134  A    between atoms: _330  and  _331
REMARK                            x       y       z     vdW  Elec       q    Type
REMARK                         _______ _______ _______ _____ _____    ______ ____
ROOT
ATOM      1  O   HOH     1      28.652 -16.304   0.151  0.00  0.00    +0.000 OA
ENDROOT
TORSDOF 0
REMARK  Name = ../refined-set-2016/2r0h/2r0h_pocket.pdb
REMARK  134 active torsions:
REMARK  status: ('A' for Active; 'I' for Inactive)
REMARK    1  A    between atoms: _2  and  _3
REMARK    2  A    between atoms: _8  and  _10
REMARK    3  A    between atoms: _10  and  _11
REMARK    4  A    between atoms: _10  and  _13
REMARK    5  A    between atoms: _13  and  _14
REMARK    6  A    between atoms: _17  and  _19
REMARK    7  A    between atoms: _19  and  _20
REMARK    8  A    between atoms: _22  and  _24
REMARK    9  A    between atoms: _24  and  _25
REMARK   10  A    between atoms: _24  and  _27
REMARK   11  A    between atoms: _27  and  _28
REMARK   12  A    between atoms: _31  and  _33
REMARK   13  A    between atoms: _33  and  _34
REMARK   14  A    between atoms: _33  and  _36
REMARK   15  A    between atoms: _36  and  _37
REMARK   16  A    between atoms: _40  and  _42
REMARK   17  A    between atoms: _42  and  _43
REMARK   18  A    between atoms: _42  and  _45
REMARK   19  A    between atoms: _45  and  _46
REMARK   20  A    between atoms: _51  and  _53
REMARK   21  A    between atoms: _53  and  _54
REMARK   22  A    between atoms: _53  and  _56
REMARK   23  A    between atoms: _56  and  _57
REMARK   24  A    between atoms: _60  and  _62
REMARK   25  A    between atoms: _62  and  _63
REMARK   26  A    between atoms: _62  and  _65
REMARK   27  A    between atoms: _65  and  _66
REMARK   28  A    between atoms: _71  and  _73
REMARK   29  A    between atoms: _73  and  _74
REMARK   30  A    between atoms: _73  and  _76
REMARK   31  A    between atoms: _76  and  _77
REMARK   32  A    between atoms: _82  and  _84
REMARK   33  A    between atoms: _84  and  _85
REMARK   34  A    between atoms: _84  and  _87
REMARK   35  A    between atoms: _90  and  _92
REMARK   36  A    between atoms: _92  and  _93
REMARK   37  A    between atoms: _92  and  _95
REMARK   38  A    between atoms: _95  and  _96
REMARK   39  A    between atoms: _101  and  _103
REMARK   40  A    between atoms: _103  and  _104
REMARK   41  A    between atoms: _103  and  _106
REMARK   42  A    between atoms: _106  and  _107
REMARK   43  A    between atoms: _110  and  _112
REMARK   44  A    between atoms: _112  and  _113
REMARK   45  A    between atoms: _115  and  _117
REMARK   46  A    between atoms: _117  and  _118
REMARK   47  A    between atoms: _117  and  _120
REMARK   48  A    between atoms: _120  and  _121
REMARK   49  A    between atoms: _121  and  _122
REMARK   50  A    between atoms: _122  and  _123
REMARK   51  A    between atoms: _132  and  _134
REMARK   52  A    between atoms: _134  and  _135
REMARK   53  A    between atoms: _134  and  _137
REMARK   54  A    between atoms: _137  and  _138
REMARK   55  A    between atoms: _138  and  _139
REMARK   56  A    between atoms: _142  and  _144
REMARK   57  A    between atoms: _144  and  _145
REMARK   58  A    between atoms: _144  and  _147
REMARK   59  A    between atoms: _150  and  _152
REMARK   60  A    between atoms: _152  and  _153
REMARK   61  A    between atoms: _152  and  _155
REMARK   62  A    between atoms: _155  and  _156
REMARK   63  A    between atoms: _162  and  _164
REMARK   64  A    between atoms: _164  and  _165
REMARK   65  A    between atoms: _164  and  _167
REMARK   66  A    between atoms: _167  and  _168
REMARK   67  A    between atoms: _173  and  _175
REMARK   68  A    between atoms: _175  and  _176
REMARK   69  A    between atoms: _175  and  _178
REMARK   70  A    between atoms: _178  and  _179
REMARK   71  A    between atoms: _181  and  _183
REMARK   72  A    between atoms: _183  and  _184
REMARK   73  A    between atoms: _183  and  _186
REMARK   74  A    between atoms: _186  and  _187
REMARK   75  A    between atoms: _190  and  _192
REMARK   76  A    between atoms: _192  and  _193
REMARK   77  A    between atoms: _192  and  _195
REMARK   78  A    between atoms: _195  and  _196
REMARK   79  A    between atoms: _198  and  _200
REMARK   80  A    between atoms: _200  and  _201
REMARK   81  A    between atoms: _200  and  _203
REMARK   82  A    between atoms: _203  and  _204
REMARK   83  A    between atoms: _204  and  _205
REMARK   84  A    between atoms: _205  and  _206
REMARK   85  A    between atoms: _215  and  _217
REMARK   86  A    between atoms: _217  and  _218
REMARK   87  A    between atoms: _221  and  _222
REMARK   88  A    between atoms: _227  and  _229
REMARK   89  A    between atoms: _229  and  _230
REMARK   90  A    between atoms: _229  and  _232
REMARK   91  A    between atoms: _232  and  _233
REMARK   92  A    between atoms: _233  and  _234
REMARK   93  A    between atoms: _237  and  _239
REMARK   94  A    between atoms: _239  and  _240
REMARK   95  A    between atoms: _239  and  _242
REMARK   96  A    between atoms: _242  and  _243
REMARK   97  A    between atoms: _243  and  _244
REMARK   98  A    between atoms: _247  and  _249
REMARK   99  A    between atoms: _249  and  _250
REMARK  100  A    between atoms: _249  and  _252
REMARK  101  A    between atoms: _252  and  _253
REMARK  102  A    between atoms: _253  and  _254
REMARK  103  A    between atoms: _254  and  _255
REMARK  104  A    between atoms: _264  and  _266
REMARK  105  A    between atoms: _266  and  _267
REMARK  106  A    between atoms: _266  and  _269
REMARK  107  A    between atoms: _269  and  _270
REMARK  108  A    between atoms: _270  and  _271
REMARK  109  A    between atoms: _271  and  _272
REMARK  110  A    between atoms: _281  and  _283
REMARK  111  A    between atoms: _283  and  _284
REMARK  112  A    between atoms: _283  and  _286
REMARK  113  A    between atoms: _286  and  _287
REMARK  114  A    between atoms: _287  and  _288
REMARK  115  A    between atoms: _288  and  _289
REMARK  116  A    between atoms: _289  and  _290
REMARK  117  A    between atoms: _294  and  _296
REMARK  118  A    between atoms: _296  and  _297
REMARK  119  A    between atoms: _296  and  _299
REMARK  120  A    between atoms: _299  and  _300
REMARK  121  A    between atoms: _303  and  _305
REMARK  122  A    between atoms: _305  and  _306
REMARK  123  A    between atoms: _305  and  _308
REMARK  124  A    between atoms: _308  and  _309
REMARK  125  A    between atoms: _314  and  _316
REMARK  126  A    between atoms: _316  and  _317
REMARK  127  A    between atoms: _316  and  _319
REMARK  128  A    between atoms: _319  and  _320
REMARK  129  A    between atoms: _320  and  _321
REMARK  130  A    between atoms: _324  and  _326
REMARK  131  A    between atoms: _326  and  _327
REMARK  132  A    between atoms: _326  and  _329
REMARK  133  A    between atoms: _329  and  _330
REMARK  134  A    between atoms: _330  and  _331
REMARK                            x       y       z     vdW  Elec       q    Type
REMARK                         _______ _______ _______ _____ _____    ______ ____
ROOT
ATOM      1  O   HOH     1      28.119 -10.489 -13.768  0.00  0.00    +0.000 OA
ENDROOT
TORSDOF 0
