REMARK  Name = ../refined-set-2016/2qm9/2qm9_pocket.pdb
REMARK  241 active torsions:
REMARK  status: ('A' for Active; 'I' for Inactive)
REMARK    1  A    between atoms: _1  and  _3
REMARK    2  A    between atoms: _3  and  _4
REMARK    3  A    between atoms: _3  and  _6
REMARK    4  A    between atoms: _6  and  _7
REMARK    5  A    between atoms: _10  and  _12
REMARK    6  A    between atoms: _12  and  _13
REMARK    7  A    between atoms: _12  and  _15
REMARK    8  A    between atoms: _15  and  _16
REMARK    9  A    between atoms: _18  and  _20
REMARK   10  A    between atoms: _20  and  _21
REMARK   11  A    between atoms: _20  and  _23
REMARK   12  A    between atoms: _23  and  _24
REMARK   13  A    between atoms: _30  and  _32
REMARK   14  A    between atoms: _32  and  _33
REMARK   15  A    between atoms: _32  and  _35
REMARK   16  A    between atoms: _35  and  _36
REMARK   17  A    between atoms: _41  and  _42
REMARK   18  A    between atoms: _44  and  _46
REMARK   19  A    between atoms: _46  and  _47
REMARK   20  A    between atoms: _46  and  _49
REMARK   21  A    between atoms: _49  and  _50
REMARK   22  A    between atoms: _50  and  _51
REMARK   23  A    between atoms: _53  and  _55
REMARK   24  A    between atoms: _55  and  _56
REMARK   25  A    between atoms: _55  and  _58
REMARK   26  A    between atoms: _58  and  _59
REMARK   27  A    between atoms: _59  and  _60
REMARK   28  A    between atoms: _60  and  _61
REMARK   29  A    between atoms: _61  and  _62
REMARK   30  A    between atoms: _66  and  _68
REMARK   31  A    between atoms: _68  and  _69
REMARK   32  A    between atoms: _68  and  _71
REMARK   33  A    between atoms: _74  and  _76
REMARK   34  A    between atoms: _76  and  _77
REMARK   35  A    between atoms: _79  and  _81
REMARK   36  A    between atoms: _81  and  _82
REMARK   37  A    between atoms: _81  and  _84
REMARK   38  A    between atoms: _87  and  _89
REMARK   39  A    between atoms: _89  and  _90
REMARK   40  A    between atoms: _92  and  _94
REMARK   41  A    between atoms: _94  and  _95
REMARK   42  A    between atoms: _94  and  _97
REMARK   43  A    between atoms: _97  and  _98
REMARK   44  A    between atoms: _101  and  _103
REMARK   45  A    between atoms: _103  and  _104
REMARK   46  A    between atoms: _103  and  _106
REMARK   47  A    between atoms: _106  and  _107
REMARK   48  A    between atoms: _107  and  _108
REMARK   49  A    between atoms: _108  and  _109
REMARK   50  A    between atoms: _118  and  _120
REMARK   51  A    between atoms: _120  and  _121
REMARK   52  A    between atoms: _120  and  _123
REMARK   53  A    between atoms: _126  and  _128
REMARK   54  A    between atoms: _128  and  _129
REMARK   55  A    between atoms: _132  and  _134
REMARK   56  A    between atoms: _134  and  _135
REMARK   57  A    between atoms: _137  and  _139
REMARK   58  A    between atoms: _139  and  _140
REMARK   59  A    between atoms: _139  and  _142
REMARK   60  A    between atoms: _142  and  _143
REMARK   61  A    between atoms: _143  and  _144
REMARK   62  A    between atoms: _146  and  _148
REMARK   63  A    between atoms: _148  and  _149
REMARK   64  A    between atoms: _152  and  _154
REMARK   65  A    between atoms: _154  and  _155
REMARK   66  A    between atoms: _154  and  _157
REMARK   67  A    between atoms: _157  and  _158
REMARK   68  A    between atoms: _158  and  _159
REMARK   69  A    between atoms: _159  and  _160
REMARK   70  A    between atoms: _160  and  _161
REMARK   71  A    between atoms: _166  and  _167
REMARK   72  A    between atoms: _172  and  _174
REMARK   73  A    between atoms: _174  and  _175
REMARK   74  A    between atoms: _174  and  _177
REMARK   75  A    between atoms: _177  and  _178
REMARK   76  A    between atoms: _183  and  _185
REMARK   77  A    between atoms: _185  and  _186
REMARK   78  A    between atoms: _185  and  _188
REMARK   79  A    between atoms: _188  and  _189
REMARK   80  A    between atoms: _189  and  _190
REMARK   81  A    between atoms: _192  and  _194
REMARK   82  A    between atoms: _194  and  _195
REMARK   83  A    between atoms: _194  and  _197
REMARK   84  A    between atoms: _197  and  _198
REMARK   85  A    between atoms: _201  and  _203
REMARK   86  A    between atoms: _203  and  _204
REMARK   87  A    between atoms: _203  and  _206
REMARK   88  A    between atoms: _206  and  _207
REMARK   89  A    between atoms: _207  and  _208
REMARK   90  A    between atoms: _208  and  _209
REMARK   91  A    between atoms: _218  and  _220
REMARK   92  A    between atoms: _220  and  _221
REMARK   93  A    between atoms: _220  and  _223
REMARK   94  A    between atoms: _223  and  _224
REMARK   95  A    between atoms: _226  and  _228
REMARK   96  A    between atoms: _228  and  _229
REMARK   97  A    between atoms: _228  and  _231
REMARK   98  A    between atoms: _231  and  _232
REMARK   99  A    between atoms: _232  and  _233
REMARK  100  A    between atoms: _236  and  _238
REMARK  101  A    between atoms: _238  and  _239
REMARK  102  A    between atoms: _238  and  _241
REMARK  103  A    between atoms: _241  and  _242
REMARK  104  A    between atoms: _244  and  _246
REMARK  105  A    between atoms: _246  and  _247
REMARK  106  A    between atoms: _246  and  _249
REMARK  107  A    between atoms: _249  and  _250
REMARK  108  A    between atoms: _253  and  _255
REMARK  109  A    between atoms: _255  and  _256
REMARK  110  A    between atoms: _255  and  _258
REMARK  111  A    between atoms: _258  and  _259
REMARK  112  A    between atoms: _265  and  _267
REMARK  113  A    between atoms: _267  and  _268
REMARK  114  A    between atoms: _267  and  _270
REMARK  115  A    between atoms: _270  and  _271
REMARK  116  A    between atoms: _271  and  _272
REMARK  117  A    between atoms: _272  and  _273
REMARK  118  A    between atoms: _273  and  _274
REMARK  119  A    between atoms: _278  and  _280
REMARK  120  A    between atoms: _280  and  _281
REMARK  121  A    between atoms: _280  and  _283
REMARK  122  A    between atoms: _283  and  _284
REMARK  123  A    between atoms: _289  and  _291
REMARK  124  A    between atoms: _291  and  _292
REMARK  125  A    between atoms: _291  and  _294
REMARK  126  A    between atoms: _294  and  _295
REMARK  127  A    between atoms: _298  and  _300
REMARK  128  A    between atoms: _300  and  _301
REMARK  129  A    between atoms: _300  and  _303
REMARK  130  A    between atoms: _303  and  _304
REMARK  131  A    between atoms: _304  and  _305
REMARK  132  A    between atoms: _308  and  _310
REMARK  133  A    between atoms: _310  and  _311
REMARK  134  A    between atoms: _310  and  _313
REMARK  135  A    between atoms: _313  and  _314
REMARK  136  A    between atoms: _317  and  _319
REMARK  137  A    between atoms: _319  and  _320
REMARK  138  A    between atoms: _319  and  _322
REMARK  139  A    between atoms: _322  and  _323
REMARK  140  A    between atoms: _323  and  _324
REMARK  141  A    between atoms: _327  and  _329
REMARK  142  A    between atoms: _329  and  _330
REMARK  143  A    between atoms: _329  and  _332
REMARK  144  A    between atoms: _332  and  _333
REMARK  145  A    between atoms: _336  and  _338
REMARK  146  A    between atoms: _338  and  _339
REMARK  147  A    between atoms: _338  and  _341
REMARK  148  A    between atoms: _341  and  _342
REMARK  149  A    between atoms: _345  and  _347
REMARK  150  A    between atoms: _347  and  _348
REMARK  151  A    between atoms: _351  and  _353
REMARK  152  A    between atoms: _353  and  _354
REMARK  153  A    between atoms: _353  and  _356
REMARK  154  A    between atoms: _356  and  _357
REMARK  155  A    between atoms: _360  and  _362
REMARK  156  A    between atoms: _362  and  _363
REMARK  157  A    between atoms: _362  and  _365
REMARK  158  A    between atoms: _365  and  _366
REMARK  159  A    between atoms: _369  and  _371
REMARK  160  A    between atoms: _371  and  _372
REMARK  161  A    between atoms: _371  and  _374
REMARK  162  A    between atoms: _374  and  _375
REMARK  163  A    between atoms: _375  and  _376
REMARK  164  A    between atoms: _376  and  _377
REMARK  165  A    between atoms: _386  and  _388
REMARK  166  A    between atoms: _388  and  _389
REMARK  167  A    between atoms: _388  and  _391
REMARK  168  A    between atoms: _391  and  _392
REMARK  169  A    between atoms: _392  and  _393
REMARK  170  A    between atoms: _398  and  _400
REMARK  171  A    between atoms: _400  and  _401
REMARK  172  A    between atoms: _400  and  _403
REMARK  173  A    between atoms: _403  and  _404
REMARK  174  A    between atoms: _404  and  _405
REMARK  175  A    between atoms: _410  and  _412
REMARK  176  A    between atoms: _412  and  _413
REMARK  177  A    between atoms: _412  and  _415
REMARK  178  A    between atoms: _415  and  _416
REMARK  179  A    between atoms: _426  and  _428
REMARK  180  A    between atoms: _428  and  _429
REMARK  181  A    between atoms: _428  and  _431
REMARK  182  A    between atoms: _431  and  _432
REMARK  183  A    between atoms: _435  and  _437
REMARK  184  A    between atoms: _437  and  _438
REMARK  185  A    between atoms: _437  and  _440
REMARK  186  A    between atoms: _440  and  _441
REMARK  187  A    between atoms: _444  and  _446
REMARK  188  A    between atoms: _446  and  _447
REMARK  189  A    between atoms: _446  and  _449
REMARK  190  A    between atoms: _449  and  _450
REMARK  191  A    between atoms: _453  and  _455
REMARK  192  A    between atoms: _455  and  _456
REMARK  193  A    between atoms: _455  and  _458
REMARK  194  A    between atoms: _458  and  _459
REMARK  195  A    between atoms: _459  and  _460
REMARK  196  A    between atoms: _460  and  _461
REMARK  197  A    between atoms: _461  and  _462
REMARK  198  A    between atoms: _466  and  _468
REMARK  199  A    between atoms: _468  and  _469
REMARK  200  A    between atoms: _468  and  _471
REMARK  201  A    between atoms: _471  and  _472
REMARK  202  A    between atoms: _472  and  _473
REMARK  203  A    between atoms: _473  and  _474
REMARK  204  A    between atoms: _483  and  _485
REMARK  205  A    between atoms: _485  and  _486
REMARK  206  A    between atoms: _485  and  _488
REMARK  207  A    between atoms: _491  and  _493
REMARK  208  A    between atoms: _493  and  _494
REMARK  209  A    between atoms: _493  and  _496
REMARK  210  A    between atoms: _496  and  _497
REMARK  211  A    between atoms: _497  and  _498
REMARK  212  A    between atoms: _501  and  _503
REMARK  213  A    between atoms: _503  and  _504
REMARK  214  A    between atoms: _503  and  _506
REMARK  215  A    between atoms: _508  and  _510
REMARK  216  A    between atoms: _510  and  _511
REMARK  217  A    between atoms: _510  and  _513
REMARK  218  A    between atoms: _516  and  _518
REMARK  219  A    between atoms: _518  and  _519
REMARK  220  A    between atoms: _518  and  _521
REMARK  221  A    between atoms: _521  and  _522
REMARK  222  A    between atoms: _524  and  _526
REMARK  223  A    between atoms: _526  and  _527
REMARK  224  A    between atoms: _526  and  _529
REMARK  225  A    between atoms: _529  and  _530
REMARK  226  A    between atoms: _533  and  _535
REMARK  227  A    between atoms: _535  and  _536
REMARK  228  A    between atoms: _535  and  _538
REMARK  229  A    between atoms: _538  and  _539
REMARK  230  A    between atoms: _539  and  _540
REMARK  231  A    between atoms: _540  and  _541
REMARK  232  A    between atoms: _550  and  _552
REMARK  233  A    between atoms: _552  and  _553
REMARK  234  A    between atoms: _552  and  _555
REMARK  235  A    between atoms: _555  and  _556
REMARK  236  A    between atoms: _561  and  _562
REMARK  237  A    between atoms: _564  and  _566
REMARK  238  A    between atoms: _566  and  _567
REMARK  239  A    between atoms: _566  and  _569
REMARK  240  A    between atoms: _569  and  _570
REMARK  241  A    between atoms: _570  and  _571
REMARK                            x       y       z     vdW  Elec       q    Type
REMARK                         _______ _______ _______ _____ _____    ______ ____
ROOT
ATOM      1  CA  LEU A   1       0.497 -14.269  27.215  0.00  0.00    +0.133 C 
ENDROOT
BRANCH   1   2
ATOM      2  N   LEU A   1       0.218 -15.696  27.157  0.00  0.00    -0.239 NA
ATOM      3  H   LEU A   1      -0.746 -16.035  27.353  0.00  0.00    +0.142 HD
ENDBRANCH   1   2
BRANCH   1   4
ATOM      4  C   LEU A   1       1.324 -13.941  28.445  0.00  0.00    +0.224 C 
ATOM      5  O   LEU A   1       1.100 -14.447  29.542  0.00  0.00    -0.287 OA
ENDBRANCH   1   4
BRANCH   1   6
ATOM      6  CB  LEU A   1      -0.780 -13.412  27.182  0.00  0.00    +0.025 C 
BRANCH   6   7
ATOM      7  CG  LEU A   1      -0.512 -11.902  26.973  0.00  0.00    +0.002 C 
ATOM      8  CD2 LEU A   1      -1.673 -11.030  27.422  0.00  0.00    +0.000 C 
ATOM      9  CD1 LEU A   1      -0.132 -11.611  25.512  0.00  0.00    +0.000 C 
ENDBRANCH   6   7
ENDBRANCH   1   6
TORSDOF 4
REMARK  Name = ../refined-set-2016/2qm9/2qm9_pocket.pdb
REMARK  241 active torsions:
REMARK  status: ('A' for Active; 'I' for Inactive)
REMARK    1  A    between atoms: _1  and  _3
REMARK    2  A    between atoms: _3  and  _4
REMARK    3  A    between atoms: _3  and  _6
REMARK    4  A    between atoms: _6  and  _7
REMARK    5  A    between atoms: _10  and  _12
REMARK    6  A    between atoms: _12  and  _13
REMARK    7  A    between atoms: _12  and  _15
REMARK    8  A    between atoms: _15  and  _16
REMARK    9  A    between atoms: _18  and  _20
REMARK   10  A    between atoms: _20  and  _21
REMARK   11  A    between atoms: _20  and  _23
REMARK   12  A    between atoms: _23  and  _24
REMARK   13  A    between atoms: _30  and  _32
REMARK   14  A    between atoms: _32  and  _33
REMARK   15  A    between atoms: _32  and  _35
REMARK   16  A    between atoms: _35  and  _36
REMARK   17  A    between atoms: _41  and  _42
REMARK   18  A    between atoms: _44  and  _46
REMARK   19  A    between atoms: _46  and  _47
REMARK   20  A    between atoms: _46  and  _49
REMARK   21  A    between atoms: _49  and  _50
REMARK   22  A    between atoms: _50  and  _51
REMARK   23  A    between atoms: _53  and  _55
REMARK   24  A    between atoms: _55  and  _56
REMARK   25  A    between atoms: _55  and  _58
REMARK   26  A    between atoms: _58  and  _59
REMARK   27  A    between atoms: _59  and  _60
REMARK   28  A    between atoms: _60  and  _61
REMARK   29  A    between atoms: _61  and  _62
REMARK   30  A    between atoms: _66  and  _68
REMARK   31  A    between atoms: _68  and  _69
REMARK   32  A    between atoms: _68  and  _71
REMARK   33  A    between atoms: _74  and  _76
REMARK   34  A    between atoms: _76  and  _77
REMARK   35  A    between atoms: _79  and  _81
REMARK   36  A    between atoms: _81  and  _82
REMARK   37  A    between atoms: _81  and  _84
REMARK   38  A    between atoms: _87  and  _89
REMARK   39  A    between atoms: _89  and  _90
REMARK   40  A    between atoms: _92  and  _94
REMARK   41  A    between atoms: _94  and  _95
REMARK   42  A    between atoms: _94  and  _97
REMARK   43  A    between atoms: _97  and  _98
REMARK   44  A    between atoms: _101  and  _103
REMARK   45  A    between atoms: _103  and  _104
REMARK   46  A    between atoms: _103  and  _106
REMARK   47  A    between atoms: _106  and  _107
REMARK   48  A    between atoms: _107  and  _108
REMARK   49  A    between atoms: _108  and  _109
REMARK   50  A    between atoms: _118  and  _120
REMARK   51  A    between atoms: _120  and  _121
REMARK   52  A    between atoms: _120  and  _123
REMARK   53  A    between atoms: _126  and  _128
REMARK   54  A    between atoms: _128  and  _129
REMARK   55  A    between atoms: _132  and  _134
REMARK   56  A    between atoms: _134  and  _135
REMARK   57  A    between atoms: _137  and  _139
REMARK   58  A    between atoms: _139  and  _140
REMARK   59  A    between atoms: _139  and  _142
REMARK   60  A    between atoms: _142  and  _143
REMARK   61  A    between atoms: _143  and  _144
REMARK   62  A    between atoms: _146  and  _148
REMARK   63  A    between atoms: _148  and  _149
REMARK   64  A    between atoms: _152  and  _154
REMARK   65  A    between atoms: _154  and  _155
REMARK   66  A    between atoms: _154  and  _157
REMARK   67  A    between atoms: _157  and  _158
REMARK   68  A    between atoms: _158  and  _159
REMARK   69  A    between atoms: _159  and  _160
REMARK   70  A    between atoms: _160  and  _161
REMARK   71  A    between atoms: _166  and  _167
REMARK   72  A    between atoms: _172  and  _174
REMARK   73  A    between atoms: _174  and  _175
REMARK   74  A    between atoms: _174  and  _177
REMARK   75  A    between atoms: _177  and  _178
REMARK   76  A    between atoms: _183  and  _185
REMARK   77  A    between atoms: _185  and  _186
REMARK   78  A    between atoms: _185  and  _188
REMARK   79  A    between atoms: _188  and  _189
REMARK   80  A    between atoms: _189  and  _190
REMARK   81  A    between atoms: _192  and  _194
REMARK   82  A    between atoms: _194  and  _195
REMARK   83  A    between atoms: _194  and  _197
REMARK   84  A    between atoms: _197  and  _198
REMARK   85  A    between atoms: _201  and  _203
REMARK   86  A    between atoms: _203  and  _204
REMARK   87  A    between atoms: _203  and  _206
REMARK   88  A    between atoms: _206  and  _207
REMARK   89  A    between atoms: _207  and  _208
REMARK   90  A    between atoms: _208  and  _209
REMARK   91  A    between atoms: _218  and  _220
REMARK   92  A    between atoms: _220  and  _221
REMARK   93  A    between atoms: _220  and  _223
REMARK   94  A    between atoms: _223  and  _224
REMARK   95  A    between atoms: _226  and  _228
REMARK   96  A    between atoms: _228  and  _229
REMARK   97  A    between atoms: _228  and  _231
REMARK   98  A    between atoms: _231  and  _232
REMARK   99  A    between atoms: _232  and  _233
REMARK  100  A    between atoms: _236  and  _238
REMARK  101  A    between atoms: _238  and  _239
REMARK  102  A    between atoms: _238  and  _241
REMARK  103  A    between atoms: _241  and  _242
REMARK  104  A    between atoms: _244  and  _246
REMARK  105  A    between atoms: _246  and  _247
REMARK  106  A    between atoms: _246  and  _249
REMARK  107  A    between atoms: _249  and  _250
REMARK  108  A    between atoms: _253  and  _255
REMARK  109  A    between atoms: _255  and  _256
REMARK  110  A    between atoms: _255  and  _258
REMARK  111  A    between atoms: _258  and  _259
REMARK  112  A    between atoms: _265  and  _267
REMARK  113  A    between atoms: _267  and  _268
REMARK  114  A    between atoms: _267  and  _270
REMARK  115  A    between atoms: _270  and  _271
REMARK  116  A    between atoms: _271  and  _272
REMARK  117  A    between atoms: _272  and  _273
REMARK  118  A    between atoms: _273  and  _274
REMARK  119  A    between atoms: _278  and  _280
REMARK  120  A    between atoms: _280  and  _281
REMARK  121  A    between atoms: _280  and  _283
REMARK  122  A    between atoms: _283  and  _284
REMARK  123  A    between atoms: _289  and  _291
REMARK  124  A    between atoms: _291  and  _292
REMARK  125  A    between atoms: _291  and  _294
REMARK  126  A    between atoms: _294  and  _295
REMARK  127  A    between atoms: _298  and  _300
REMARK  128  A    between atoms: _300  and  _301
REMARK  129  A    between atoms: _300  and  _303
REMARK  130  A    between atoms: _303  and  _304
REMARK  131  A    between atoms: _304  and  _305
REMARK  132  A    between atoms: _308  and  _310
REMARK  133  A    between atoms: _310  and  _311
REMARK  134  A    between atoms: _310  and  _313
REMARK  135  A    between atoms: _313  and  _314
REMARK  136  A    between atoms: _317  and  _319
REMARK  137  A    between atoms: _319  and  _320
REMARK  138  A    between atoms: _319  and  _322
REMARK  139  A    between atoms: _322  and  _323
REMARK  140  A    between atoms: _323  and  _324
REMARK  141  A    between atoms: _327  and  _329
REMARK  142  A    between atoms: _329  and  _330
REMARK  143  A    between atoms: _329  and  _332
REMARK  144  A    between atoms: _332  and  _333
REMARK  145  A    between atoms: _336  and  _338
REMARK  146  A    between atoms: _338  and  _339
REMARK  147  A    between atoms: _338  and  _341
REMARK  148  A    between atoms: _341  and  _342
REMARK  149  A    between atoms: _345  and  _347
REMARK  150  A    between atoms: _347  and  _348
REMARK  151  A    between atoms: _351  and  _353
REMARK  152  A    between atoms: _353  and  _354
REMARK  153  A    between atoms: _353  and  _356
REMARK  154  A    between atoms: _356  and  _357
REMARK  155  A    between atoms: _360  and  _362
REMARK  156  A    between atoms: _362  and  _363
REMARK  157  A    between atoms: _362  and  _365
REMARK  158  A    between atoms: _365  and  _366
REMARK  159  A    between atoms: _369  and  _371
REMARK  160  A    between atoms: _371  and  _372
REMARK  161  A    between atoms: _371  and  _374
REMARK  162  A    between atoms: _374  and  _375
REMARK  163  A    between atoms: _375  and  _376
REMARK  164  A    between atoms: _376  and  _377
REMARK  165  A    between atoms: _386  and  _388
REMARK  166  A    between atoms: _388  and  _389
REMARK  167  A    between atoms: _388  and  _391
REMARK  168  A    between atoms: _391  and  _392
REMARK  169  A    between atoms: _392  and  _393
REMARK  170  A    between atoms: _398  and  _400
REMARK  171  A    between atoms: _400  and  _401
REMARK  172  A    between atoms: _400  and  _403
REMARK  173  A    between atoms: _403  and  _404
REMARK  174  A    between atoms: _404  and  _405
REMARK  175  A    between atoms: _410  and  _412
REMARK  176  A    between atoms: _412  and  _413
REMARK  177  A    between atoms: _412  and  _415
REMARK  178  A    between atoms: _415  and  _416
REMARK  179  A    between atoms: _426  and  _428
REMARK  180  A    between atoms: _428  and  _429
REMARK  181  A    between atoms: _428  and  _431
REMARK  182  A    between atoms: _431  and  _432
REMARK  183  A    between atoms: _435  and  _437
REMARK  184  A    between atoms: _437  and  _438
REMARK  185  A    between atoms: _437  and  _440
REMARK  186  A    between atoms: _440  and  _441
REMARK  187  A    between atoms: _444  and  _446
REMARK  188  A    between atoms: _446  and  _447
REMARK  189  A    between atoms: _446  and  _449
REMARK  190  A    between atoms: _449  and  _450
REMARK  191  A    between atoms: _453  and  _455
REMARK  192  A    between atoms: _455  and  _456
REMARK  193  A    between atoms: _455  and  _458
REMARK  194  A    between atoms: _458  and  _459
REMARK  195  A    between atoms: _459  and  _460
REMARK  196  A    between atoms: _460  and  _461
REMARK  197  A    between atoms: _461  and  _462
REMARK  198  A    between atoms: _466  and  _468
REMARK  199  A    between atoms: _468  and  _469
REMARK  200  A    between atoms: _468  and  _471
REMARK  201  A    between atoms: _471  and  _472
REMARK  202  A    between atoms: _472  and  _473
REMARK  203  A    between atoms: _473  and  _474
REMARK  204  A    between atoms: _483  and  _485
REMARK  205  A    between atoms: _485  and  _486
REMARK  206  A    between atoms: _485  and  _488
REMARK  207  A    between atoms: _491  and  _493
REMARK  208  A    between atoms: _493  and  _494
REMARK  209  A    between atoms: _493  and  _496
REMARK  210  A    between atoms: _496  and  _497
REMARK  211  A    between atoms: _497  and  _498
REMARK  212  A    between atoms: _501  and  _503
REMARK  213  A    between atoms: _503  and  _504
REMARK  214  A    between atoms: _503  and  _506
REMARK  215  A    between atoms: _508  and  _510
REMARK  216  A    between atoms: _510  and  _511
REMARK  217  A    between atoms: _510  and  _513
REMARK  218  A    between atoms: _516  and  _518
REMARK  219  A    between atoms: _518  and  _519
REMARK  220  A    between atoms: _518  and  _521
REMARK  221  A    between atoms: _521  and  _522
REMARK  222  A    between atoms: _524  and  _526
REMARK  223  A    between atoms: _526  and  _527
REMARK  224  A    between atoms: _526  and  _529
REMARK  225  A    between atoms: _529  and  _530
REMARK  226  A    between atoms: _533  and  _535
REMARK  227  A    between atoms: _535  and  _536
REMARK  228  A    between atoms: _535  and  _538
REMARK  229  A    between atoms: _538  and  _539
REMARK  230  A    between atoms: _539  and  _540
REMARK  231  A    between atoms: _540  and  _541
REMARK  232  A    between atoms: _550  and  _552
REMARK  233  A    between atoms: _552  and  _553
REMARK  234  A    between atoms: _552  and  _555
REMARK  235  A    between atoms: _555  and  _556
REMARK  236  A    between atoms: _561  and  _562
REMARK  237  A    between atoms: _564  and  _566
REMARK  238  A    between atoms: _566  and  _567
REMARK  239  A    between atoms: _566  and  _569
REMARK  240  A    between atoms: _569  and  _570
REMARK  241  A    between atoms: _570  and  _571
REMARK                            x       y       z     vdW  Elec       q    Type
REMARK                         _______ _______ _______ _____ _____    ______ ____
ROOT
ATOM      1  CA  SER A   1       0.712  -6.544  26.853  0.00  0.00    +0.163 C 
ENDROOT
BRANCH   1   2
ATOM      2  N   SER A   1       1.594  -7.218  27.808  0.00  0.00    -0.237 NA
ATOM      3  H   SER A   1       1.834  -6.743  28.702  0.00  0.00    +0.142 HD
ENDBRANCH   1   2
BRANCH   1   4
ATOM      4  C   SER A   1       0.932  -5.049  26.945  0.00  0.00    +0.227 C 
ATOM      5  O   SER A   1       1.125  -4.532  28.030  0.00  0.00    -0.287 OA
ENDBRANCH   1   4
BRANCH   1   6
ATOM      6  CB  SER A   1      -0.755  -6.894  27.140  0.00  0.00    +0.162 C 
BRANCH   6   7
ATOM      7  OG  SER A   1      -1.654  -6.110  26.368  0.00  0.00    -0.380 OA
ATOM      8  H   SER A   1      -2.585  -6.368  26.584  0.00  0.00    +0.211 HD
ENDBRANCH   6   7
ENDBRANCH   1   6
TORSDOF 4
REMARK  Name = ../refined-set-2016/2qm9/2qm9_pocket.pdb
REMARK  241 active torsions:
REMARK  status: ('A' for Active; 'I' for Inactive)
REMARK    1  A    between atoms: _1  and  _3
REMARK    2  A    between atoms: _3  and  _4
REMARK    3  A    between atoms: _3  and  _6
REMARK    4  A    between atoms: _6  and  _7
REMARK    5  A    between atoms: _10  and  _12
REMARK    6  A    between atoms: _12  and  _13
REMARK    7  A    between atoms: _12  and  _15
REMARK    8  A    between atoms: _15  and  _16
REMARK    9  A    between atoms: _18  and  _20
REMARK   10  A    between atoms: _20  and  _21
REMARK   11  A    between atoms: _20  and  _23
REMARK   12  A    between atoms: _23  and  _24
REMARK   13  A    between atoms: _30  and  _32
REMARK   14  A    between atoms: _32  and  _33
REMARK   15  A    between atoms: _32  and  _35
REMARK   16  A    between atoms: _35  and  _36
REMARK   17  A    between atoms: _41  and  _42
REMARK   18  A    between atoms: _44  and  _46
REMARK   19  A    between atoms: _46  and  _47
REMARK   20  A    between atoms: _46  and  _49
REMARK   21  A    between atoms: _49  and  _50
REMARK   22  A    between atoms: _50  and  _51
REMARK   23  A    between atoms: _53  and  _55
REMARK   24  A    between atoms: _55  and  _56
REMARK   25  A    between atoms: _55  and  _58
REMARK   26  A    between atoms: _58  and  _59
REMARK   27  A    between atoms: _59  and  _60
REMARK   28  A    between atoms: _60  and  _61
REMARK   29  A    between atoms: _61  and  _62
REMARK   30  A    between atoms: _66  and  _68
REMARK   31  A    between atoms: _68  and  _69
REMARK   32  A    between atoms: _68  and  _71
REMARK   33  A    between atoms: _74  and  _76
REMARK   34  A    between atoms: _76  and  _77
REMARK   35  A    between atoms: _79  and  _81
REMARK   36  A    between atoms: _81  and  _82
REMARK   37  A    between atoms: _81  and  _84
REMARK   38  A    between atoms: _87  and  _89
REMARK   39  A    between atoms: _89  and  _90
REMARK   40  A    between atoms: _92  and  _94
REMARK   41  A    between atoms: _94  and  _95
REMARK   42  A    between atoms: _94  and  _97
REMARK   43  A    between atoms: _97  and  _98
REMARK   44  A    between atoms: _101  and  _103
REMARK   45  A    between atoms: _103  and  _104
REMARK   46  A    between atoms: _103  and  _106
REMARK   47  A    between atoms: _106  and  _107
REMARK   48  A    between atoms: _107  and  _108
REMARK   49  A    between atoms: _108  and  _109
REMARK   50  A    between atoms: _118  and  _120
REMARK   51  A    between atoms: _120  and  _121
REMARK   52  A    between atoms: _120  and  _123
REMARK   53  A    between atoms: _126  and  _128
REMARK   54  A    between atoms: _128  and  _129
REMARK   55  A    between atoms: _132  and  _134
REMARK   56  A    between atoms: _134  and  _135
REMARK   57  A    between atoms: _137  and  _139
REMARK   58  A    between atoms: _139  and  _140
REMARK   59  A    between atoms: _139  and  _142
REMARK   60  A    between atoms: _142  and  _143
REMARK   61  A    between atoms: _143  and  _144
REMARK   62  A    between atoms: _146  and  _148
REMARK   63  A    between atoms: _148  and  _149
REMARK   64  A    between atoms: _152  and  _154
REMARK   65  A    between atoms: _154  and  _155
REMARK   66  A    between atoms: _154  and  _157
REMARK   67  A    between atoms: _157  and  _158
REMARK   68  A    between atoms: _158  and  _159
REMARK   69  A    between atoms: _159  and  _160
REMARK   70  A    between atoms: _160  and  _161
REMARK   71  A    between atoms: _166  and  _167
REMARK   72  A    between atoms: _172  and  _174
REMARK   73  A    between atoms: _174  and  _175
REMARK   74  A    between atoms: _174  and  _177
REMARK   75  A    between atoms: _177  and  _178
REMARK   76  A    between atoms: _183  and  _185
REMARK   77  A    between atoms: _185  and  _186
REMARK   78  A    between atoms: _185  and  _188
REMARK   79  A    between atoms: _188  and  _189
REMARK   80  A    between atoms: _189  and  _190
REMARK   81  A    between atoms: _192  and  _194
REMARK   82  A    between atoms: _194  and  _195
REMARK   83  A    between atoms: _194  and  _197
REMARK   84  A    between atoms: _197  and  _198
REMARK   85  A    between atoms: _201  and  _203
REMARK   86  A    between atoms: _203  and  _204
REMARK   87  A    between atoms: _203  and  _206
REMARK   88  A    between atoms: _206  and  _207
REMARK   89  A    between atoms: _207  and  _208
REMARK   90  A    between atoms: _208  and  _209
REMARK   91  A    between atoms: _218  and  _220
REMARK   92  A    between atoms: _220  and  _221
REMARK   93  A    between atoms: _220  and  _223
REMARK   94  A    between atoms: _223  and  _224
REMARK   95  A    between atoms: _226  and  _228
REMARK   96  A    between atoms: _228  and  _229
REMARK   97  A    between atoms: _228  and  _231
REMARK   98  A    between atoms: _231  and  _232
REMARK   99  A    between atoms: _232  and  _233
REMARK  100  A    between atoms: _236  and  _238
REMARK  101  A    between atoms: _238  and  _239
REMARK  102  A    between atoms: _238  and  _241
REMARK  103  A    between atoms: _241  and  _242
REMARK  104  A    between atoms: _244  and  _246
REMARK  105  A    between atoms: _246  and  _247
REMARK  106  A    between atoms: _246  and  _249
REMARK  107  A    between atoms: _249  and  _250
REMARK  108  A    between atoms: _253  and  _255
REMARK  109  A    between atoms: _255  and  _256
REMARK  110  A    between atoms: _255  and  _258
REMARK  111  A    between atoms: _258  and  _259
REMARK  112  A    between atoms: _265  and  _267
REMARK  113  A    between atoms: _267  and  _268
REMARK  114  A    between atoms: _267  and  _270
REMARK  115  A    between atoms: _270  and  _271
REMARK  116  A    between atoms: _271  and  _272
REMARK  117  A    between atoms: _272  and  _273
REMARK  118  A    between atoms: _273  and  _274
REMARK  119  A    between atoms: _278  and  _280
REMARK  120  A    between atoms: _280  and  _281
REMARK  121  A    between atoms: _280  and  _283
REMARK  122  A    between atoms: _283  and  _284
REMARK  123  A    between atoms: _289  and  _291
REMARK  124  A    between atoms: _291  and  _292
REMARK  125  A    between atoms: _291  and  _294
REMARK  126  A    between atoms: _294  and  _295
REMARK  127  A    between atoms: _298  and  _300
REMARK  128  A    between atoms: _300  and  _301
REMARK  129  A    between atoms: _300  and  _303
REMARK  130  A    between atoms: _303  and  _304
REMARK  131  A    between atoms: _304  and  _305
REMARK  132  A    between atoms: _308  and  _310
REMARK  133  A    between atoms: _310  and  _311
REMARK  134  A    between atoms: _310  and  _313
REMARK  135  A    between atoms: _313  and  _314
REMARK  136  A    between atoms: _317  and  _319
REMARK  137  A    between atoms: _319  and  _320
REMARK  138  A    between atoms: _319  and  _322
REMARK  139  A    between atoms: _322  and  _323
REMARK  140  A    between atoms: _323  and  _324
REMARK  141  A    between atoms: _327  and  _329
REMARK  142  A    between atoms: _329  and  _330
REMARK  143  A    between atoms: _329  and  _332
REMARK  144  A    between atoms: _332  and  _333
REMARK  145  A    between atoms: _336  and  _338
REMARK  146  A    between atoms: _338  and  _339
REMARK  147  A    between atoms: _338  and  _341
REMARK  148  A    between atoms: _341  and  _342
REMARK  149  A    between atoms: _345  and  _347
REMARK  150  A    between atoms: _347  and  _348
REMARK  151  A    between atoms: _351  and  _353
REMARK  152  A    between atoms: _353  and  _354
REMARK  153  A    between atoms: _353  and  _356
REMARK  154  A    between atoms: _356  and  _357
REMARK  155  A    between atoms: _360  and  _362
REMARK  156  A    between atoms: _362  and  _363
REMARK  157  A    between atoms: _362  and  _365
REMARK  158  A    between atoms: _365  and  _366
REMARK  159  A    between atoms: _369  and  _371
REMARK  160  A    between atoms: _371  and  _372
REMARK  161  A    between atoms: _371  and  _374
REMARK  162  A    between atoms: _374  and  _375
REMARK  163  A    between atoms: _375  and  _376
REMARK  164  A    between atoms: _376  and  _377
REMARK  165  A    between atoms: _386  and  _388
REMARK  166  A    between atoms: _388  and  _389
REMARK  167  A    between atoms: _388  and  _391
REMARK  168  A    between atoms: _391  and  _392
REMARK  169  A    between atoms: _392  and  _393
REMARK  170  A    between atoms: _398  and  _400
REMARK  171  A    between atoms: _400  and  _401
REMARK  172  A    between atoms: _400  and  _403
REMARK  173  A    between atoms: _403  and  _404
REMARK  174  A    between atoms: _404  and  _405
REMARK  175  A    between atoms: _410  and  _412
REMARK  176  A    between atoms: _412  and  _413
REMARK  177  A    between atoms: _412  and  _415
REMARK  178  A    between atoms: _415  and  _416
REMARK  179  A    between atoms: _426  and  _428
REMARK  180  A    between atoms: _428  and  _429
REMARK  181  A    between atoms: _428  and  _431
REMARK  182  A    between atoms: _431  and  _432
REMARK  183  A    between atoms: _435  and  _437
REMARK  184  A    between atoms: _437  and  _438
REMARK  185  A    between atoms: _437  and  _440
REMARK  186  A    between atoms: _440  and  _441
REMARK  187  A    between atoms: _444  and  _446
REMARK  188  A    between atoms: _446  and  _447
REMARK  189  A    between atoms: _446  and  _449
REMARK  190  A    between atoms: _449  and  _450
REMARK  191  A    between atoms: _453  and  _455
REMARK  192  A    between atoms: _455  and  _456
REMARK  193  A    between atoms: _455  and  _458
REMARK  194  A    between atoms: _458  and  _459
REMARK  195  A    between atoms: _459  and  _460
REMARK  196  A    between atoms: _460  and  _461
REMARK  197  A    between atoms: _461  and  _462
REMARK  198  A    between atoms: _466  and  _468
REMARK  199  A    between atoms: _468  and  _469
REMARK  200  A    between atoms: _468  and  _471
REMARK  201  A    between atoms: _471  and  _472
REMARK  202  A    between atoms: _472  and  _473
REMARK  203  A    between atoms: _473  and  _474
REMARK  204  A    between atoms: _483  and  _485
REMARK  205  A    between atoms: _485  and  _486
REMARK  206  A    between atoms: _485  and  _488
REMARK  207  A    between atoms: _491  and  _493
REMARK  208  A    between atoms: _493  and  _494
REMARK  209  A    between atoms: _493  and  _496
REMARK  210  A    between atoms: _496  and  _497
REMARK  211  A    between atoms: _497  and  _498
REMARK  212  A    between atoms: _501  and  _503
REMARK  213  A    between atoms: _503  and  _504
REMARK  214  A    between atoms: _503  and  _506
REMARK  215  A    between atoms: _508  and  _510
REMARK  216  A    between atoms: _510  and  _511
REMARK  217  A    between atoms: _510  and  _513
REMARK  218  A    between atoms: _516  and  _518
REMARK  219  A    between atoms: _518  and  _519
REMARK  220  A    between atoms: _518  and  _521
REMARK  221  A    between atoms: _521  and  _522
REMARK  222  A    between atoms: _524  and  _526
REMARK  223  A    between atoms: _526  and  _527
REMARK  224  A    between atoms: _526  and  _529
REMARK  225  A    between atoms: _529  and  _530
REMARK  226  A    between atoms: _533  and  _535
REMARK  227  A    between atoms: _535  and  _536
REMARK  228  A    between atoms: _535  and  _538
REMARK  229  A    between atoms: _538  and  _539
REMARK  230  A    between atoms: _539  and  _540
REMARK  231  A    between atoms: _540  and  _541
REMARK  232  A    between atoms: _550  and  _552
REMARK  233  A    between atoms: _552  and  _553
REMARK  234  A    between atoms: _552  and  _555
REMARK  235  A    between atoms: _555  and  _556
REMARK  236  A    between atoms: _561  and  _562
REMARK  237  A    between atoms: _564  and  _566
REMARK  238  A    between atoms: _566  and  _567
REMARK  239  A    between atoms: _566  and  _569
REMARK  240  A    between atoms: _569  and  _570
REMARK  241  A    between atoms: _570  and  _571
REMARK                            x       y       z     vdW  Elec       q    Type
REMARK                         _______ _______ _______ _____ _____    ______ ____
ROOT
ATOM      1  CB  PHE A   1      -3.740  -4.236  24.358  0.00  0.00    +0.051 C 
ENDROOT
BRANCH   1   2
ATOM      2  CG  PHE A   1      -4.719  -5.203  23.783  0.00  0.00    -0.020 A 
ATOM      3  CD2 PHE A   1      -5.571  -5.905  24.610  0.00  0.00    -0.004 A 
ATOM      4  CE2 PHE A   1      -6.477  -6.806  24.102  0.00  0.00    -0.000 A 
ATOM      5  CZ  PHE A   1      -6.568  -7.006  22.751  0.00  0.00    -0.000 A 
ATOM      6  CE1 PHE A   1      -5.716  -6.312  21.885  0.00  0.00    -0.000 A 
ATOM      7  CD1 PHE A   1      -4.791  -5.422  22.409  0.00  0.00    -0.004 A 
ENDBRANCH   1   2
BRANCH   1   8
ATOM      8  CA  PHE A   1      -3.772  -2.862  23.701  0.00  0.00    +0.137 C 
BRANCH   8   9
ATOM      9  N   PHE A   1      -2.746  -2.015  24.270  0.00  0.00    -0.239 NA
ATOM     10  H   PHE A   1      -2.367  -2.236  25.213  0.00  0.00    +0.142 HD
ENDBRANCH   8   9
BRANCH   8  11
ATOM     11  C   PHE A   1      -5.151  -2.200  23.834  0.00  0.00    +0.224 C 
ATOM     12  O   PHE A   1      -5.996  -2.352  22.954  0.00  0.00    -0.287 OA
ENDBRANCH   8  11
ENDBRANCH   1   8
TORSDOF 4
REMARK  Name = ../refined-set-2016/2qm9/2qm9_pocket.pdb
REMARK  241 active torsions:
REMARK  status: ('A' for Active; 'I' for Inactive)
REMARK    1  A    between atoms: _1  and  _3
REMARK    2  A    between atoms: _3  and  _4
REMARK    3  A    between atoms: _3  and  _6
REMARK    4  A    between atoms: _6  and  _7
REMARK    5  A    between atoms: _10  and  _12
REMARK    6  A    between atoms: _12  and  _13
REMARK    7  A    between atoms: _12  and  _15
REMARK    8  A    between atoms: _15  and  _16
REMARK    9  A    between atoms: _18  and  _20
REMARK   10  A    between atoms: _20  and  _21
REMARK   11  A    between atoms: _20  and  _23
REMARK   12  A    between atoms: _23  and  _24
REMARK   13  A    between atoms: _30  and  _32
REMARK   14  A    between atoms: _32  and  _33
REMARK   15  A    between atoms: _32  and  _35
REMARK   16  A    between atoms: _35  and  _36
REMARK   17  A    between atoms: _41  and  _42
REMARK   18  A    between atoms: _44  and  _46
REMARK   19  A    between atoms: _46  and  _47
REMARK   20  A    between atoms: _46  and  _49
REMARK   21  A    between atoms: _49  and  _50
REMARK   22  A    between atoms: _50  and  _51
REMARK   23  A    between atoms: _53  and  _55
REMARK   24  A    between atoms: _55  and  _56
REMARK   25  A    between atoms: _55  and  _58
REMARK   26  A    between atoms: _58  and  _59
REMARK   27  A    between atoms: _59  and  _60
REMARK   28  A    between atoms: _60  and  _61
REMARK   29  A    between atoms: _61  and  _62
REMARK   30  A    between atoms: _66  and  _68
REMARK   31  A    between atoms: _68  and  _69
REMARK   32  A    between atoms: _68  and  _71
REMARK   33  A    between atoms: _74  and  _76
REMARK   34  A    between atoms: _76  and  _77
REMARK   35  A    between atoms: _79  and  _81
REMARK   36  A    between atoms: _81  and  _82
REMARK   37  A    between atoms: _81  and  _84
REMARK   38  A    between atoms: _87  and  _89
REMARK   39  A    between atoms: _89  and  _90
REMARK   40  A    between atoms: _92  and  _94
REMARK   41  A    between atoms: _94  and  _95
REMARK   42  A    between atoms: _94  and  _97
REMARK   43  A    between atoms: _97  and  _98
REMARK   44  A    between atoms: _101  and  _103
REMARK   45  A    between atoms: _103  and  _104
REMARK   46  A    between atoms: _103  and  _106
REMARK   47  A    between atoms: _106  and  _107
REMARK   48  A    between atoms: _107  and  _108
REMARK   49  A    between atoms: _108  and  _109
REMARK   50  A    between atoms: _118  and  _120
REMARK   51  A    between atoms: _120  and  _121
REMARK   52  A    between atoms: _120  and  _123
REMARK   53  A    between atoms: _126  and  _128
REMARK   54  A    between atoms: _128  and  _129
REMARK   55  A    between atoms: _132  and  _134
REMARK   56  A    between atoms: _134  and  _135
REMARK   57  A    between atoms: _137  and  _139
REMARK   58  A    between atoms: _139  and  _140
REMARK   59  A    between atoms: _139  and  _142
REMARK   60  A    between atoms: _142  and  _143
REMARK   61  A    between atoms: _143  and  _144
REMARK   62  A    between atoms: _146  and  _148
REMARK   63  A    between atoms: _148  and  _149
REMARK   64  A    between atoms: _152  and  _154
REMARK   65  A    between atoms: _154  and  _155
REMARK   66  A    between atoms: _154  and  _157
REMARK   67  A    between atoms: _157  and  _158
REMARK   68  A    between atoms: _158  and  _159
REMARK   69  A    between atoms: _159  and  _160
REMARK   70  A    between atoms: _160  and  _161
REMARK   71  A    between atoms: _166  and  _167
REMARK   72  A    between atoms: _172  and  _174
REMARK   73  A    between atoms: _174  and  _175
REMARK   74  A    between atoms: _174  and  _177
REMARK   75  A    between atoms: _177  and  _178
REMARK   76  A    between atoms: _183  and  _185
REMARK   77  A    between atoms: _185  and  _186
REMARK   78  A    between atoms: _185  and  _188
REMARK   79  A    between atoms: _188  and  _189
REMARK   80  A    between atoms: _189  and  _190
REMARK   81  A    between atoms: _192  and  _194
REMARK   82  A    between atoms: _194  and  _195
REMARK   83  A    between atoms: _194  and  _197
REMARK   84  A    between atoms: _197  and  _198
REMARK   85  A    between atoms: _201  and  _203
REMARK   86  A    between atoms: _203  and  _204
REMARK   87  A    between atoms: _203  and  _206
REMARK   88  A    between atoms: _206  and  _207
REMARK   89  A    between atoms: _207  and  _208
REMARK   90  A    between atoms: _208  and  _209
REMARK   91  A    between atoms: _218  and  _220
REMARK   92  A    between atoms: _220  and  _221
REMARK   93  A    between atoms: _220  and  _223
REMARK   94  A    between atoms: _223  and  _224
REMARK   95  A    between atoms: _226  and  _228
REMARK   96  A    between atoms: _228  and  _229
REMARK   97  A    between atoms: _228  and  _231
REMARK   98  A    between atoms: _231  and  _232
REMARK   99  A    between atoms: _232  and  _233
REMARK  100  A    between atoms: _236  and  _238
REMARK  101  A    between atoms: _238  and  _239
REMARK  102  A    between atoms: _238  and  _241
REMARK  103  A    between atoms: _241  and  _242
REMARK  104  A    between atoms: _244  and  _246
REMARK  105  A    between atoms: _246  and  _247
REMARK  106  A    between atoms: _246  and  _249
REMARK  107  A    between atoms: _249  and  _250
REMARK  108  A    between atoms: _253  and  _255
REMARK  109  A    between atoms: _255  and  _256
REMARK  110  A    between atoms: _255  and  _258
REMARK  111  A    between atoms: _258  and  _259
REMARK  112  A    between atoms: _265  and  _267
REMARK  113  A    between atoms: _267  and  _268
REMARK  114  A    between atoms: _267  and  _270
REMARK  115  A    between atoms: _270  and  _271
REMARK  116  A    between atoms: _271  and  _272
REMARK  117  A    between atoms: _272  and  _273
REMARK  118  A    between atoms: _273  and  _274
REMARK  119  A    between atoms: _278  and  _280
REMARK  120  A    between atoms: _280  and  _281
REMARK  121  A    between atoms: _280  and  _283
REMARK  122  A    between atoms: _283  and  _284
REMARK  123  A    between atoms: _289  and  _291
REMARK  124  A    between atoms: _291  and  _292
REMARK  125  A    between atoms: _291  and  _294
REMARK  126  A    between atoms: _294  and  _295
REMARK  127  A    between atoms: _298  and  _300
REMARK  128  A    between atoms: _300  and  _301
REMARK  129  A    between atoms: _300  and  _303
REMARK  130  A    between atoms: _303  and  _304
REMARK  131  A    between atoms: _304  and  _305
REMARK  132  A    between atoms: _308  and  _310
REMARK  133  A    between atoms: _310  and  _311
REMARK  134  A    between atoms: _310  and  _313
REMARK  135  A    between atoms: _313  and  _314
REMARK  136  A    between atoms: _317  and  _319
REMARK  137  A    between atoms: _319  and  _320
REMARK  138  A    between atoms: _319  and  _322
REMARK  139  A    between atoms: _322  and  _323
REMARK  140  A    between atoms: _323  and  _324
REMARK  141  A    between atoms: _327  and  _329
REMARK  142  A    between atoms: _329  and  _330
REMARK  143  A    between atoms: _329  and  _332
REMARK  144  A    between atoms: _332  and  _333
REMARK  145  A    between atoms: _336  and  _338
REMARK  146  A    between atoms: _338  and  _339
REMARK  147  A    between atoms: _338  and  _341
REMARK  148  A    between atoms: _341  and  _342
REMARK  149  A    between atoms: _345  and  _347
REMARK  150  A    between atoms: _347  and  _348
REMARK  151  A    between atoms: _351  and  _353
REMARK  152  A    between atoms: _353  and  _354
REMARK  153  A    between atoms: _353  and  _356
REMARK  154  A    between atoms: _356  and  _357
REMARK  155  A    between atoms: _360  and  _362
REMARK  156  A    between atoms: _362  and  _363
REMARK  157  A    between atoms: _362  and  _365
REMARK  158  A    between atoms: _365  and  _366
REMARK  159  A    between atoms: _369  and  _371
REMARK  160  A    between atoms: _371  and  _372
REMARK  161  A    between atoms: _371  and  _374
REMARK  162  A    between atoms: _374  and  _375
REMARK  163  A    between atoms: _375  and  _376
REMARK  164  A    between atoms: _376  and  _377
REMARK  165  A    between atoms: _386  and  _388
REMARK  166  A    between atoms: _388  and  _389
REMARK  167  A    between atoms: _388  and  _391
REMARK  168  A    between atoms: _391  and  _392
REMARK  169  A    between atoms: _392  and  _393
REMARK  170  A    between atoms: _398  and  _400
REMARK  171  A    between atoms: _400  and  _401
REMARK  172  A    between atoms: _400  and  _403
REMARK  173  A    between atoms: _403  and  _404
REMARK  174  A    between atoms: _404  and  _405
REMARK  175  A    between atoms: _410  and  _412
REMARK  176  A    between atoms: _412  and  _413
REMARK  177  A    between atoms: _412  and  _415
REMARK  178  A    between atoms: _415  and  _416
REMARK  179  A    between atoms: _426  and  _428
REMARK  180  A    between atoms: _428  and  _429
REMARK  181  A    between atoms: _428  and  _431
REMARK  182  A    between atoms: _431  and  _432
REMARK  183  A    between atoms: _435  and  _437
REMARK  184  A    between atoms: _437  and  _438
REMARK  185  A    between atoms: _437  and  _440
REMARK  186  A    between atoms: _440  and  _441
REMARK  187  A    between atoms: _444  and  _446
REMARK  188  A    between atoms: _446  and  _447
REMARK  189  A    between atoms: _446  and  _449
REMARK  190  A    between atoms: _449  and  _450
REMARK  191  A    between atoms: _453  and  _455
REMARK  192  A    between atoms: _455  and  _456
REMARK  193  A    between atoms: _455  and  _458
REMARK  194  A    between atoms: _458  and  _459
REMARK  195  A    between atoms: _459  and  _460
REMARK  196  A    between atoms: _460  and  _461
REMARK  197  A    between atoms: _461  and  _462
REMARK  198  A    between atoms: _466  and  _468
REMARK  199  A    between atoms: _468  and  _469
REMARK  200  A    between atoms: _468  and  _471
REMARK  201  A    between atoms: _471  and  _472
REMARK  202  A    between atoms: _472  and  _473
REMARK  203  A    between atoms: _473  and  _474
REMARK  204  A    between atoms: _483  and  _485
REMARK  205  A    between atoms: _485  and  _486
REMARK  206  A    between atoms: _485  and  _488
REMARK  207  A    between atoms: _491  and  _493
REMARK  208  A    between atoms: _493  and  _494
REMARK  209  A    between atoms: _493  and  _496
REMARK  210  A    between atoms: _496  and  _497
REMARK  211  A    between atoms: _497  and  _498
REMARK  212  A    between atoms: _501  and  _503
REMARK  213  A    between atoms: _503  and  _504
REMARK  214  A    between atoms: _503  and  _506
REMARK  215  A    between atoms: _508  and  _510
REMARK  216  A    between atoms: _510  and  _511
REMARK  217  A    between atoms: _510  and  _513
REMARK  218  A    between atoms: _516  and  _518
REMARK  219  A    between atoms: _518  and  _519
REMARK  220  A    between atoms: _518  and  _521
REMARK  221  A    between atoms: _521  and  _522
REMARK  222  A    between atoms: _524  and  _526
REMARK  223  A    between atoms: _526  and  _527
REMARK  224  A    between atoms: _526  and  _529
REMARK  225  A    between atoms: _529  and  _530
REMARK  226  A    between atoms: _533  and  _535
REMARK  227  A    between atoms: _535  and  _536
REMARK  228  A    between atoms: _535  and  _538
REMARK  229  A    between atoms: _538  and  _539
REMARK  230  A    between atoms: _539  and  _540
REMARK  231  A    between atoms: _540  and  _541
REMARK  232  A    between atoms: _550  and  _552
REMARK  233  A    between atoms: _552  and  _553
REMARK  234  A    between atoms: _552  and  _555
REMARK  235  A    between atoms: _555  and  _556
REMARK  236  A    between atoms: _561  and  _562
REMARK  237  A    between atoms: _564  and  _566
REMARK  238  A    between atoms: _566  and  _567
REMARK  239  A    between atoms: _566  and  _569
REMARK  240  A    between atoms: _569  and  _570
REMARK  241  A    between atoms: _570  and  _571
REMARK                            x       y       z     vdW  Elec       q    Type
REMARK                         _______ _______ _______ _____ _____    ______ ____
ROOT
ATOM      1  CA  MET A   2      -8.828  -1.727  20.478  0.00  0.00    +0.149 C 
ENDROOT
BRANCH   1   2
ATOM      2  C   MET A   2      -9.742  -0.517  20.270  0.00  0.00    +0.241 C 
ATOM      3  N   LYS A   3      -9.352   0.629  20.816  0.00  0.00    -0.298 N 
ATOM      4  H   LYS A   3      -8.469   0.645  21.365  0.00  0.00    +0.150 HD
ATOM      5  O   MET A   2     -10.764  -0.622  19.606  0.00  0.00    -0.273 OA
BRANCH   3   6
ATOM      6  CA  LYS A   3     -10.116   1.871  20.675  0.00  0.00    +0.137 C 
BRANCH   6   7
ATOM      7  C   LYS A   3     -10.142   2.340  19.210  0.00  0.00    +0.227 C 
ATOM      8  O   LYS A   3     -11.141   2.904  18.756  0.00  0.00    -0.286 OA
ENDBRANCH   6   7
BRANCH   6   9
ATOM      9  CB  LYS A   3      -9.509   2.969  21.578  0.00  0.00    +0.028 C 
BRANCH   9  10
ATOM     10  CG  LYS A   3     -10.425   4.138  21.919  0.00  0.00    -0.000 C 
BRANCH  10  11
ATOM     11  CD  LYS A   3      -9.661   5.287  22.636  0.00  0.00    -0.024 C 
BRANCH  11  12
ATOM     12  CE  LYS A   3      -9.321   4.944  24.097  0.00  0.00    -0.086 C 
BRANCH  12  13
ATOM     13  NZ  LYS A   3      -9.059   6.161  24.946  0.00  0.00    +0.380 N 
ATOM     14  HZ1 LYS A   3      -8.836   5.863  25.917  0.00  0.00    -0.089 HD
ATOM     15  HZ2 LYS A   3      -9.905   6.766  24.953  0.00  0.00    -0.089 HD
ATOM     16  HZ3 LYS A   3      -8.256   6.691  24.552  0.00  0.00    -0.089 HD
ENDBRANCH  12  13
ENDBRANCH  11  12
ENDBRANCH  10  11
ENDBRANCH   9  10
ENDBRANCH   6   9
ENDBRANCH   3   6
ENDBRANCH   1   2
BRANCH   1  18
ATOM     17  C   TYR A   1      -6.817  -0.804  19.502  0.00  0.00    +0.239 C 
ATOM     18  N   MET A   2      -7.442  -1.329  20.543  0.00  0.00    -0.297 N 
ATOM     19  H   MET A   2      -6.920  -1.459  21.433  0.00  0.00    +0.150 HD
ATOM     20  O   TYR A   1      -7.363  -0.608  18.427  0.00  0.00    -0.274 OA
BRANCH  17  21
ATOM     21  CA  TYR A   1      -5.362  -0.438  19.721  0.00  0.00    +0.149 C 
BRANCH  21  22
ATOM     22  N   TYR A   1      -5.206   0.272  20.984  0.00  0.00    -0.238 NA
ATOM     23  H   TYR A   1      -4.585  -0.131  21.714  0.00  0.00    +0.142 HD
ENDBRANCH  21  22
BRANCH  21  24
ATOM     24  CB  TYR A   1      -4.524  -1.711  19.697  0.00  0.00    +0.053 C 
BRANCH  24  25
ATOM     25  CG  TYR A   1      -4.834  -2.600  18.508  0.00  0.00    -0.020 A 
ATOM     26  CD2 TYR A   1      -5.450  -3.835  18.666  0.00  0.00    -0.001 A 
ATOM     27  CE2 TYR A   1      -5.734  -4.631  17.559  0.00  0.00    +0.036 A 
ATOM     28  CZ  TYR A   1      -5.407  -4.178  16.282  0.00  0.00    +0.134 A 
ATOM     29  CE1 TYR A   1      -4.799  -2.956  16.119  0.00  0.00    +0.036 A 
ATOM     30  CD1 TYR A   1      -4.520  -2.185  17.215  0.00  0.00    -0.001 A 
BRANCH  28  31
ATOM     31  OH  TYR A   1      -5.664  -4.941  15.166  0.00  0.00    -0.506 OA
ATOM     32  HH  TYR A   1      -5.363  -4.454  14.358  0.00  0.00    +0.292 HD
ENDBRANCH  28  31
ENDBRANCH  24  25
ENDBRANCH  21  24
ENDBRANCH  17  21
ENDBRANCH   1  18
BRANCH   1  33
ATOM     33  CB  MET A   2      -9.204  -2.469  21.755  0.00  0.00    +0.041 C 
BRANCH  33  34
ATOM     34  CG  MET A   2      -8.654  -3.877  21.836  0.00  0.00    +0.060 C 
BRANCH  34  35
ATOM     35  SD  MET A   2      -9.651  -4.884  22.954  0.00  0.00    -0.139 S 
ATOM     36  CE  MET A   2      -8.904  -4.549  24.556  0.00  0.00    +0.069 C 
ENDBRANCH  34  35
ENDBRANCH  33  34
ENDBRANCH   1  33
TORSDOF 17
REMARK  Name = ../refined-set-2016/2qm9/2qm9_pocket.pdb
REMARK  241 active torsions:
REMARK  status: ('A' for Active; 'I' for Inactive)
REMARK    1  A    between atoms: _1  and  _3
REMARK    2  A    between atoms: _3  and  _4
REMARK    3  A    between atoms: _3  and  _6
REMARK    4  A    between atoms: _6  and  _7
REMARK    5  A    between atoms: _10  and  _12
REMARK    6  A    between atoms: _12  and  _13
REMARK    7  A    between atoms: _12  and  _15
REMARK    8  A    between atoms: _15  and  _16
REMARK    9  A    between atoms: _18  and  _20
REMARK   10  A    between atoms: _20  and  _21
REMARK   11  A    between atoms: _20  and  _23
REMARK   12  A    between atoms: _23  and  _24
REMARK   13  A    between atoms: _30  and  _32
REMARK   14  A    between atoms: _32  and  _33
REMARK   15  A    between atoms: _32  and  _35
REMARK   16  A    between atoms: _35  and  _36
REMARK   17  A    between atoms: _41  and  _42
REMARK   18  A    between atoms: _44  and  _46
REMARK   19  A    between atoms: _46  and  _47
REMARK   20  A    between atoms: _46  and  _49
REMARK   21  A    between atoms: _49  and  _50
REMARK   22  A    between atoms: _50  and  _51
REMARK   23  A    between atoms: _53  and  _55
REMARK   24  A    between atoms: _55  and  _56
REMARK   25  A    between atoms: _55  and  _58
REMARK   26  A    between atoms: _58  and  _59
REMARK   27  A    between atoms: _59  and  _60
REMARK   28  A    between atoms: _60  and  _61
REMARK   29  A    between atoms: _61  and  _62
REMARK   30  A    between atoms: _66  and  _68
REMARK   31  A    between atoms: _68  and  _69
REMARK   32  A    between atoms: _68  and  _71
REMARK   33  A    between atoms: _74  and  _76
REMARK   34  A    between atoms: _76  and  _77
REMARK   35  A    between atoms: _79  and  _81
REMARK   36  A    between atoms: _81  and  _82
REMARK   37  A    between atoms: _81  and  _84
REMARK   38  A    between atoms: _87  and  _89
REMARK   39  A    between atoms: _89  and  _90
REMARK   40  A    between atoms: _92  and  _94
REMARK   41  A    between atoms: _94  and  _95
REMARK   42  A    between atoms: _94  and  _97
REMARK   43  A    between atoms: _97  and  _98
REMARK   44  A    between atoms: _101  and  _103
REMARK   45  A    between atoms: _103  and  _104
REMARK   46  A    between atoms: _103  and  _106
REMARK   47  A    between atoms: _106  and  _107
REMARK   48  A    between atoms: _107  and  _108
REMARK   49  A    between atoms: _108  and  _109
REMARK   50  A    between atoms: _118  and  _120
REMARK   51  A    between atoms: _120  and  _121
REMARK   52  A    between atoms: _120  and  _123
REMARK   53  A    between atoms: _126  and  _128
REMARK   54  A    between atoms: _128  and  _129
REMARK   55  A    between atoms: _132  and  _134
REMARK   56  A    between atoms: _134  and  _135
REMARK   57  A    between atoms: _137  and  _139
REMARK   58  A    between atoms: _139  and  _140
REMARK   59  A    between atoms: _139  and  _142
REMARK   60  A    between atoms: _142  and  _143
REMARK   61  A    between atoms: _143  and  _144
REMARK   62  A    between atoms: _146  and  _148
REMARK   63  A    between atoms: _148  and  _149
REMARK   64  A    between atoms: _152  and  _154
REMARK   65  A    between atoms: _154  and  _155
REMARK   66  A    between atoms: _154  and  _157
REMARK   67  A    between atoms: _157  and  _158
REMARK   68  A    between atoms: _158  and  _159
REMARK   69  A    between atoms: _159  and  _160
REMARK   70  A    between atoms: _160  and  _161
REMARK   71  A    between atoms: _166  and  _167
REMARK   72  A    between atoms: _172  and  _174
REMARK   73  A    between atoms: _174  and  _175
REMARK   74  A    between atoms: _174  and  _177
REMARK   75  A    between atoms: _177  and  _178
REMARK   76  A    between atoms: _183  and  _185
REMARK   77  A    between atoms: _185  and  _186
REMARK   78  A    between atoms: _185  and  _188
REMARK   79  A    between atoms: _188  and  _189
REMARK   80  A    between atoms: _189  and  _190
REMARK   81  A    between atoms: _192  and  _194
REMARK   82  A    between atoms: _194  and  _195
REMARK   83  A    between atoms: _194  and  _197
REMARK   84  A    between atoms: _197  and  _198
REMARK   85  A    between atoms: _201  and  _203
REMARK   86  A    between atoms: _203  and  _204
REMARK   87  A    between atoms: _203  and  _206
REMARK   88  A    between atoms: _206  and  _207
REMARK   89  A    between atoms: _207  and  _208
REMARK   90  A    between atoms: _208  and  _209
REMARK   91  A    between atoms: _218  and  _220
REMARK   92  A    between atoms: _220  and  _221
REMARK   93  A    between atoms: _220  and  _223
REMARK   94  A    between atoms: _223  and  _224
REMARK   95  A    between atoms: _226  and  _228
REMARK   96  A    between atoms: _228  and  _229
REMARK   97  A    between atoms: _228  and  _231
REMARK   98  A    between atoms: _231  and  _232
REMARK   99  A    between atoms: _232  and  _233
REMARK  100  A    between atoms: _236  and  _238
REMARK  101  A    between atoms: _238  and  _239
REMARK  102  A    between atoms: _238  and  _241
REMARK  103  A    between atoms: _241  and  _242
REMARK  104  A    between atoms: _244  and  _246
REMARK  105  A    between atoms: _246  and  _247
REMARK  106  A    between atoms: _246  and  _249
REMARK  107  A    between atoms: _249  and  _250
REMARK  108  A    between atoms: _253  and  _255
REMARK  109  A    between atoms: _255  and  _256
REMARK  110  A    between atoms: _255  and  _258
REMARK  111  A    between atoms: _258  and  _259
REMARK  112  A    between atoms: _265  and  _267
REMARK  113  A    between atoms: _267  and  _268
REMARK  114  A    between atoms: _267  and  _270
REMARK  115  A    between atoms: _270  and  _271
REMARK  116  A    between atoms: _271  and  _272
REMARK  117  A    between atoms: _272  and  _273
REMARK  118  A    between atoms: _273  and  _274
REMARK  119  A    between atoms: _278  and  _280
REMARK  120  A    between atoms: _280  and  _281
REMARK  121  A    between atoms: _280  and  _283
REMARK  122  A    between atoms: _283  and  _284
REMARK  123  A    between atoms: _289  and  _291
REMARK  124  A    between atoms: _291  and  _292
REMARK  125  A    between atoms: _291  and  _294
REMARK  126  A    between atoms: _294  and  _295
REMARK  127  A    between atoms: _298  and  _300
REMARK  128  A    between atoms: _300  and  _301
REMARK  129  A    between atoms: _300  and  _303
REMARK  130  A    between atoms: _303  and  _304
REMARK  131  A    between atoms: _304  and  _305
REMARK  132  A    between atoms: _308  and  _310
REMARK  133  A    between atoms: _310  and  _311
REMARK  134  A    between atoms: _310  and  _313
REMARK  135  A    between atoms: _313  and  _314
REMARK  136  A    between atoms: _317  and  _319
REMARK  137  A    between atoms: _319  and  _320
REMARK  138  A    between atoms: _319  and  _322
REMARK  139  A    between atoms: _322  and  _323
REMARK  140  A    between atoms: _323  and  _324
REMARK  141  A    between atoms: _327  and  _329
REMARK  142  A    between atoms: _329  and  _330
REMARK  143  A    between atoms: _329  and  _332
REMARK  144  A    between atoms: _332  and  _333
REMARK  145  A    between atoms: _336  and  _338
REMARK  146  A    between atoms: _338  and  _339
REMARK  147  A    between atoms: _338  and  _341
REMARK  148  A    between atoms: _341  and  _342
REMARK  149  A    between atoms: _345  and  _347
REMARK  150  A    between atoms: _347  and  _348
REMARK  151  A    between atoms: _351  and  _353
REMARK  152  A    between atoms: _353  and  _354
REMARK  153  A    between atoms: _353  and  _356
REMARK  154  A    between atoms: _356  and  _357
REMARK  155  A    between atoms: _360  and  _362
REMARK  156  A    between atoms: _362  and  _363
REMARK  157  A    between atoms: _362  and  _365
REMARK  158  A    between atoms: _365  and  _366
REMARK  159  A    between atoms: _369  and  _371
REMARK  160  A    between atoms: _371  and  _372
REMARK  161  A    between atoms: _371  and  _374
REMARK  162  A    between atoms: _374  and  _375
REMARK  163  A    between atoms: _375  and  _376
REMARK  164  A    between atoms: _376  and  _377
REMARK  165  A    between atoms: _386  and  _388
REMARK  166  A    between atoms: _388  and  _389
REMARK  167  A    between atoms: _388  and  _391
REMARK  168  A    between atoms: _391  and  _392
REMARK  169  A    between atoms: _392  and  _393
REMARK  170  A    between atoms: _398  and  _400
REMARK  171  A    between atoms: _400  and  _401
REMARK  172  A    between atoms: _400  and  _403
REMARK  173  A    between atoms: _403  and  _404
REMARK  174  A    between atoms: _404  and  _405
REMARK  175  A    between atoms: _410  and  _412
REMARK  176  A    between atoms: _412  and  _413
REMARK  177  A    between atoms: _412  and  _415
REMARK  178  A    between atoms: _415  and  _416
REMARK  179  A    between atoms: _426  and  _428
REMARK  180  A    between atoms: _428  and  _429
REMARK  181  A    between atoms: _428  and  _431
REMARK  182  A    between atoms: _431  and  _432
REMARK  183  A    between atoms: _435  and  _437
REMARK  184  A    between atoms: _437  and  _438
REMARK  185  A    between atoms: _437  and  _440
REMARK  186  A    between atoms: _440  and  _441
REMARK  187  A    between atoms: _444  and  _446
REMARK  188  A    between atoms: _446  and  _447
REMARK  189  A    between atoms: _446  and  _449
REMARK  190  A    between atoms: _449  and  _450
REMARK  191  A    between atoms: _453  and  _455
REMARK  192  A    between atoms: _455  and  _456
REMARK  193  A    between atoms: _455  and  _458
REMARK  194  A    between atoms: _458  and  _459
REMARK  195  A    between atoms: _459  and  _460
REMARK  196  A    between atoms: _460  and  _461
REMARK  197  A    between atoms: _461  and  _462
REMARK  198  A    between atoms: _466  and  _468
REMARK  199  A    between atoms: _468  and  _469
REMARK  200  A    between atoms: _468  and  _471
REMARK  201  A    between atoms: _471  and  _472
REMARK  202  A    between atoms: _472  and  _473
REMARK  203  A    between atoms: _473  and  _474
REMARK  204  A    between atoms: _483  and  _485
REMARK  205  A    between atoms: _485  and  _486
REMARK  206  A    between atoms: _485  and  _488
REMARK  207  A    between atoms: _491  and  _493
REMARK  208  A    between atoms: _493  and  _494
REMARK  209  A    between atoms: _493  and  _496
REMARK  210  A    between atoms: _496  and  _497
REMARK  211  A    between atoms: _497  and  _498
REMARK  212  A    between atoms: _501  and  _503
REMARK  213  A    between atoms: _503  and  _504
REMARK  214  A    between atoms: _503  and  _506
REMARK  215  A    between atoms: _508  and  _510
REMARK  216  A    between atoms: _510  and  _511
REMARK  217  A    between atoms: _510  and  _513
REMARK  218  A    between atoms: _516  and  _518
REMARK  219  A    between atoms: _518  and  _519
REMARK  220  A    between atoms: _518  and  _521
REMARK  221  A    between atoms: _521  and  _522
REMARK  222  A    between atoms: _524  and  _526
REMARK  223  A    between atoms: _526  and  _527
REMARK  224  A    between atoms: _526  and  _529
REMARK  225  A    between atoms: _529  and  _530
REMARK  226  A    between atoms: _533  and  _535
REMARK  227  A    between atoms: _535  and  _536
REMARK  228  A    between atoms: _535  and  _538
REMARK  229  A    between atoms: _538  and  _539
REMARK  230  A    between atoms: _539  and  _540
REMARK  231  A    between atoms: _540  and  _541
REMARK  232  A    between atoms: _550  and  _552
REMARK  233  A    between atoms: _552  and  _553
REMARK  234  A    between atoms: _552  and  _555
REMARK  235  A    between atoms: _555  and  _556
REMARK  236  A    between atoms: _561  and  _562
REMARK  237  A    between atoms: _564  and  _566
REMARK  238  A    between atoms: _566  and  _567
REMARK  239  A    between atoms: _566  and  _569
REMARK  240  A    between atoms: _569  and  _570
REMARK  241  A    between atoms: _570  and  _571
REMARK                            x       y       z     vdW  Elec       q    Type
REMARK                         _______ _______ _______ _____ _____    ______ ____
ROOT
ATOM      1  C   GLY A   2     -14.581  -0.471  18.373  0.00  0.00    +0.243 C 
ATOM      2  N   VAL A   3     -13.792  -1.234  19.123  0.00  0.00    -0.297 N 
ATOM      3  H   VAL A   3     -12.770  -1.241  18.929  0.00  0.00    +0.150 HD
ATOM      4  O   GLY A   2     -15.805  -0.456  18.492  0.00  0.00    -0.273 OA
ENDROOT
BRANCH   1   5
ATOM      5  CA  GLY A   2     -13.909   0.423  17.342  0.00  0.00    +0.176 C 
BRANCH   5   7
ATOM      6  C   VAL A   1     -12.056  -0.446  16.009  0.00  0.00    +0.238 C 
ATOM      7  N   GLY A   2     -12.494   0.178  17.106  0.00  0.00    -0.296 N 
ATOM      8  H   GLY A   2     -11.802   0.499  17.813  0.00  0.00    +0.150 HD
ATOM      9  O   VAL A   1     -12.816  -0.869  15.138  0.00  0.00    -0.274 OA
BRANCH   6  10
ATOM     10  CA  VAL A   1     -10.534  -0.605  15.856  0.00  0.00    +0.145 C 
BRANCH  10  11
ATOM     11  CB  VAL A   1     -10.028  -1.995  16.304  0.00  0.00    +0.025 C 
ATOM     12  CG2 VAL A   1     -10.952  -3.082  15.848  0.00  0.00    +0.002 C 
ATOM     13  CG1 VAL A   1      -8.601  -2.226  15.795  0.00  0.00    +0.002 C 
ENDBRANCH  10  11
BRANCH  10  14
ATOM     14  N   VAL A   1      -9.848   0.408  16.621  0.00  0.00    -0.238 NA
ATOM     15  H   VAL A   1      -9.462   0.160  17.554  0.00  0.00    +0.142 HD
ENDBRANCH  10  14
ENDBRANCH   6  10
ENDBRANCH   5   7
ENDBRANCH   1   5
BRANCH   2  16
ATOM     16  CA  VAL A   3     -14.309  -2.065  20.213  0.00  0.00    +0.149 C 
BRANCH  16  17
ATOM     17  C   VAL A   3     -14.928  -1.159  21.290  0.00  0.00    +0.241 C 
ATOM     18  N   GLY A   4     -16.077  -1.557  21.829  0.00  0.00    -0.296 N 
ATOM     19  H   GLY A   4     -16.451  -2.492  21.571  0.00  0.00    +0.150 HD
ATOM     20  O   VAL A   3     -14.377  -0.111  21.607  0.00  0.00    -0.273 OA
BRANCH  18  21
ATOM     21  CA  GLY A   4     -16.834  -0.735  22.768  0.00  0.00    +0.163 C 
BRANCH  21  22
ATOM     22  C   GLY A   4     -16.214  -0.745  24.150  0.00  0.00    +0.229 C 
ATOM     23  O   GLY A   4     -15.481  -1.667  24.475  0.00  0.00    -0.286 OA
ENDBRANCH  21  22
ENDBRANCH  18  21
ENDBRANCH  16  17
BRANCH  16  24
ATOM     24  CB  VAL A   3     -13.199  -2.977  20.851  0.00  0.00    +0.027 C 
ATOM     25  CG2 VAL A   3     -13.807  -4.002  21.832  0.00  0.00    +0.002 C 
ATOM     26  CG1 VAL A   3     -12.370  -3.700  19.788  0.00  0.00    +0.002 C 
ENDBRANCH  16  24
ENDBRANCH   2  16
TORSDOF 10
REMARK  Name = ../refined-set-2016/2qm9/2qm9_pocket.pdb
REMARK  241 active torsions:
REMARK  status: ('A' for Active; 'I' for Inactive)
REMARK    1  A    between atoms: _1  and  _3
REMARK    2  A    between atoms: _3  and  _4
REMARK    3  A    between atoms: _3  and  _6
REMARK    4  A    between atoms: _6  and  _7
REMARK    5  A    between atoms: _10  and  _12
REMARK    6  A    between atoms: _12  and  _13
REMARK    7  A    between atoms: _12  and  _15
REMARK    8  A    between atoms: _15  and  _16
REMARK    9  A    between atoms: _18  and  _20
REMARK   10  A    between atoms: _20  and  _21
REMARK   11  A    between atoms: _20  and  _23
REMARK   12  A    between atoms: _23  and  _24
REMARK   13  A    between atoms: _30  and  _32
REMARK   14  A    between atoms: _32  and  _33
REMARK   15  A    between atoms: _32  and  _35
REMARK   16  A    between atoms: _35  and  _36
REMARK   17  A    between atoms: _41  and  _42
REMARK   18  A    between atoms: _44  and  _46
REMARK   19  A    between atoms: _46  and  _47
REMARK   20  A    between atoms: _46  and  _49
REMARK   21  A    between atoms: _49  and  _50
REMARK   22  A    between atoms: _50  and  _51
REMARK   23  A    between atoms: _53  and  _55
REMARK   24  A    between atoms: _55  and  _56
REMARK   25  A    between atoms: _55  and  _58
REMARK   26  A    between atoms: _58  and  _59
REMARK   27  A    between atoms: _59  and  _60
REMARK   28  A    between atoms: _60  and  _61
REMARK   29  A    between atoms: _61  and  _62
REMARK   30  A    between atoms: _66  and  _68
REMARK   31  A    between atoms: _68  and  _69
REMARK   32  A    between atoms: _68  and  _71
REMARK   33  A    between atoms: _74  and  _76
REMARK   34  A    between atoms: _76  and  _77
REMARK   35  A    between atoms: _79  and  _81
REMARK   36  A    between atoms: _81  and  _82
REMARK   37  A    between atoms: _81  and  _84
REMARK   38  A    between atoms: _87  and  _89
REMARK   39  A    between atoms: _89  and  _90
REMARK   40  A    between atoms: _92  and  _94
REMARK   41  A    between atoms: _94  and  _95
REMARK   42  A    between atoms: _94  and  _97
REMARK   43  A    between atoms: _97  and  _98
REMARK   44  A    between atoms: _101  and  _103
REMARK   45  A    between atoms: _103  and  _104
REMARK   46  A    between atoms: _103  and  _106
REMARK   47  A    between atoms: _106  and  _107
REMARK   48  A    between atoms: _107  and  _108
REMARK   49  A    between atoms: _108  and  _109
REMARK   50  A    between atoms: _118  and  _120
REMARK   51  A    between atoms: _120  and  _121
REMARK   52  A    between atoms: _120  and  _123
REMARK   53  A    between atoms: _126  and  _128
REMARK   54  A    between atoms: _128  and  _129
REMARK   55  A    between atoms: _132  and  _134
REMARK   56  A    between atoms: _134  and  _135
REMARK   57  A    between atoms: _137  and  _139
REMARK   58  A    between atoms: _139  and  _140
REMARK   59  A    between atoms: _139  and  _142
REMARK   60  A    between atoms: _142  and  _143
REMARK   61  A    between atoms: _143  and  _144
REMARK   62  A    between atoms: _146  and  _148
REMARK   63  A    between atoms: _148  and  _149
REMARK   64  A    between atoms: _152  and  _154
REMARK   65  A    between atoms: _154  and  _155
REMARK   66  A    between atoms: _154  and  _157
REMARK   67  A    between atoms: _157  and  _158
REMARK   68  A    between atoms: _158  and  _159
REMARK   69  A    between atoms: _159  and  _160
REMARK   70  A    between atoms: _160  and  _161
REMARK   71  A    between atoms: _166  and  _167
REMARK   72  A    between atoms: _172  and  _174
REMARK   73  A    between atoms: _174  and  _175
REMARK   74  A    between atoms: _174  and  _177
REMARK   75  A    between atoms: _177  and  _178
REMARK   76  A    between atoms: _183  and  _185
REMARK   77  A    between atoms: _185  and  _186
REMARK   78  A    between atoms: _185  and  _188
REMARK   79  A    between atoms: _188  and  _189
REMARK   80  A    between atoms: _189  and  _190
REMARK   81  A    between atoms: _192  and  _194
REMARK   82  A    between atoms: _194  and  _195
REMARK   83  A    between atoms: _194  and  _197
REMARK   84  A    between atoms: _197  and  _198
REMARK   85  A    between atoms: _201  and  _203
REMARK   86  A    between atoms: _203  and  _204
REMARK   87  A    between atoms: _203  and  _206
REMARK   88  A    between atoms: _206  and  _207
REMARK   89  A    between atoms: _207  and  _208
REMARK   90  A    between atoms: _208  and  _209
REMARK   91  A    between atoms: _218  and  _220
REMARK   92  A    between atoms: _220  and  _221
REMARK   93  A    between atoms: _220  and  _223
REMARK   94  A    between atoms: _223  and  _224
REMARK   95  A    between atoms: _226  and  _228
REMARK   96  A    between atoms: _228  and  _229
REMARK   97  A    between atoms: _228  and  _231
REMARK   98  A    between atoms: _231  and  _232
REMARK   99  A    between atoms: _232  and  _233
REMARK  100  A    between atoms: _236  and  _238
REMARK  101  A    between atoms: _238  and  _239
REMARK  102  A    between atoms: _238  and  _241
REMARK  103  A    between atoms: _241  and  _242
REMARK  104  A    between atoms: _244  and  _246
REMARK  105  A    between atoms: _246  and  _247
REMARK  106  A    between atoms: _246  and  _249
REMARK  107  A    between atoms: _249  and  _250
REMARK  108  A    between atoms: _253  and  _255
REMARK  109  A    between atoms: _255  and  _256
REMARK  110  A    between atoms: _255  and  _258
REMARK  111  A    between atoms: _258  and  _259
REMARK  112  A    between atoms: _265  and  _267
REMARK  113  A    between atoms: _267  and  _268
REMARK  114  A    between atoms: _267  and  _270
REMARK  115  A    between atoms: _270  and  _271
REMARK  116  A    between atoms: _271  and  _272
REMARK  117  A    between atoms: _272  and  _273
REMARK  118  A    between atoms: _273  and  _274
REMARK  119  A    between atoms: _278  and  _280
REMARK  120  A    between atoms: _280  and  _281
REMARK  121  A    between atoms: _280  and  _283
REMARK  122  A    between atoms: _283  and  _284
REMARK  123  A    between atoms: _289  and  _291
REMARK  124  A    between atoms: _291  and  _292
REMARK  125  A    between atoms: _291  and  _294
REMARK  126  A    between atoms: _294  and  _295
REMARK  127  A    between atoms: _298  and  _300
REMARK  128  A    between atoms: _300  and  _301
REMARK  129  A    between atoms: _300  and  _303
REMARK  130  A    between atoms: _303  and  _304
REMARK  131  A    between atoms: _304  and  _305
REMARK  132  A    between atoms: _308  and  _310
REMARK  133  A    between atoms: _310  and  _311
REMARK  134  A    between atoms: _310  and  _313
REMARK  135  A    between atoms: _313  and  _314
REMARK  136  A    between atoms: _317  and  _319
REMARK  137  A    between atoms: _319  and  _320
REMARK  138  A    between atoms: _319  and  _322
REMARK  139  A    between atoms: _322  and  _323
REMARK  140  A    between atoms: _323  and  _324
REMARK  141  A    between atoms: _327  and  _329
REMARK  142  A    between atoms: _329  and  _330
REMARK  143  A    between atoms: _329  and  _332
REMARK  144  A    between atoms: _332  and  _333
REMARK  145  A    between atoms: _336  and  _338
REMARK  146  A    between atoms: _338  and  _339
REMARK  147  A    between atoms: _338  and  _341
REMARK  148  A    between atoms: _341  and  _342
REMARK  149  A    between atoms: _345  and  _347
REMARK  150  A    between atoms: _347  and  _348
REMARK  151  A    between atoms: _351  and  _353
REMARK  152  A    between atoms: _353  and  _354
REMARK  153  A    between atoms: _353  and  _356
REMARK  154  A    between atoms: _356  and  _357
REMARK  155  A    between atoms: _360  and  _362
REMARK  156  A    between atoms: _362  and  _363
REMARK  157  A    between atoms: _362  and  _365
REMARK  158  A    between atoms: _365  and  _366
REMARK  159  A    between atoms: _369  and  _371
REMARK  160  A    between atoms: _371  and  _372
REMARK  161  A    between atoms: _371  and  _374
REMARK  162  A    between atoms: _374  and  _375
REMARK  163  A    between atoms: _375  and  _376
REMARK  164  A    between atoms: _376  and  _377
REMARK  165  A    between atoms: _386  and  _388
REMARK  166  A    between atoms: _388  and  _389
REMARK  167  A    between atoms: _388  and  _391
REMARK  168  A    between atoms: _391  and  _392
REMARK  169  A    between atoms: _392  and  _393
REMARK  170  A    between atoms: _398  and  _400
REMARK  171  A    between atoms: _400  and  _401
REMARK  172  A    between atoms: _400  and  _403
REMARK  173  A    between atoms: _403  and  _404
REMARK  174  A    between atoms: _404  and  _405
REMARK  175  A    between atoms: _410  and  _412
REMARK  176  A    between atoms: _412  and  _413
REMARK  177  A    between atoms: _412  and  _415
REMARK  178  A    between atoms: _415  and  _416
REMARK  179  A    between atoms: _426  and  _428
REMARK  180  A    between atoms: _428  and  _429
REMARK  181  A    between atoms: _428  and  _431
REMARK  182  A    between atoms: _431  and  _432
REMARK  183  A    between atoms: _435  and  _437
REMARK  184  A    between atoms: _437  and  _438
REMARK  185  A    between atoms: _437  and  _440
REMARK  186  A    between atoms: _440  and  _441
REMARK  187  A    between atoms: _444  and  _446
REMARK  188  A    between atoms: _446  and  _447
REMARK  189  A    between atoms: _446  and  _449
REMARK  190  A    between atoms: _449  and  _450
REMARK  191  A    between atoms: _453  and  _455
REMARK  192  A    between atoms: _455  and  _456
REMARK  193  A    between atoms: _455  and  _458
REMARK  194  A    between atoms: _458  and  _459
REMARK  195  A    between atoms: _459  and  _460
REMARK  196  A    between atoms: _460  and  _461
REMARK  197  A    between atoms: _461  and  _462
REMARK  198  A    between atoms: _466  and  _468
REMARK  199  A    between atoms: _468  and  _469
REMARK  200  A    between atoms: _468  and  _471
REMARK  201  A    between atoms: _471  and  _472
REMARK  202  A    between atoms: _472  and  _473
REMARK  203  A    between atoms: _473  and  _474
REMARK  204  A    between atoms: _483  and  _485
REMARK  205  A    between atoms: _485  and  _486
REMARK  206  A    between atoms: _485  and  _488
REMARK  207  A    between atoms: _491  and  _493
REMARK  208  A    between atoms: _493  and  _494
REMARK  209  A    between atoms: _493  and  _496
REMARK  210  A    between atoms: _496  and  _497
REMARK  211  A    between atoms: _497  and  _498
REMARK  212  A    between atoms: _501  and  _503
REMARK  213  A    between atoms: _503  and  _504
REMARK  214  A    between atoms: _503  and  _506
REMARK  215  A    between atoms: _508  and  _510
REMARK  216  A    between atoms: _510  and  _511
REMARK  217  A    between atoms: _510  and  _513
REMARK  218  A    between atoms: _516  and  _518
REMARK  219  A    between atoms: _518  and  _519
REMARK  220  A    between atoms: _518  and  _521
REMARK  221  A    between atoms: _521  and  _522
REMARK  222  A    between atoms: _524  and  _526
REMARK  223  A    between atoms: _526  and  _527
REMARK  224  A    between atoms: _526  and  _529
REMARK  225  A    between atoms: _529  and  _530
REMARK  226  A    between atoms: _533  and  _535
REMARK  227  A    between atoms: _535  and  _536
REMARK  228  A    between atoms: _535  and  _538
REMARK  229  A    between atoms: _538  and  _539
REMARK  230  A    between atoms: _539  and  _540
REMARK  231  A    between atoms: _540  and  _541
REMARK  232  A    between atoms: _550  and  _552
REMARK  233  A    between atoms: _552  and  _553
REMARK  234  A    between atoms: _552  and  _555
REMARK  235  A    between atoms: _555  and  _556
REMARK  236  A    between atoms: _561  and  _562
REMARK  237  A    between atoms: _564  and  _566
REMARK  238  A    between atoms: _566  and  _567
REMARK  239  A    between atoms: _566  and  _569
REMARK  240  A    between atoms: _569  and  _570
REMARK  241  A    between atoms: _570  and  _571
REMARK                            x       y       z     vdW  Elec       q    Type
REMARK                         _______ _______ _______ _____ _____    ______ ____
ROOT
ATOM      1  CA  ARG A   2     -12.379  -3.591  25.984  0.00  0.00    +0.137 C 
ENDROOT
BRANCH   1   4
ATOM      2  C   THR A   1     -14.370  -5.031  26.019  0.00  0.00    +0.241 C 
ATOM      3  O   THR A   1     -13.712  -6.032  26.286  0.00  0.00    -0.274 OA
ATOM      4  N   ARG A   2     -13.820  -3.834  25.820  0.00  0.00    -0.298 N 
ATOM      5  H   ARG A   2     -14.432  -3.042  25.538  0.00  0.00    +0.150 HD
BRANCH   2   6
ATOM      6  CA  THR A   1     -15.897  -5.115  25.897  0.00  0.00    +0.172 C 
BRANCH   6   7
ATOM      7  N   THR A   1     -16.556  -3.947  26.489  0.00  0.00    -0.236 NA
ATOM      8  H   THR A   1     -17.099  -3.309  25.872  0.00  0.00    +0.142 HD
ENDBRANCH   6   7
BRANCH   6   9
ATOM      9  CB  THR A   1     -16.315  -5.274  24.416  0.00  0.00    +0.135 C 
ATOM     10  CG2 THR A   1     -15.673  -6.517  23.773  0.00  0.00    +0.034 C 
BRANCH   9  11
ATOM     11  OG1 THR A   1     -17.722  -5.535  24.330  0.00  0.00    -0.383 OA
ATOM     12  HG1 THR A   1     -17.980  -5.635  23.380  0.00  0.00    +0.210 HD
ENDBRANCH   9  11
ENDBRANCH   6   9
ENDBRANCH   2   6
ENDBRANCH   1   4
BRANCH   1  13
ATOM     13  C   ARG A   2     -11.864  -3.919  27.387  0.00  0.00    +0.227 C 
ATOM     14  O   ARG A   2     -10.756  -4.404  27.540  0.00  0.00    -0.286 OA
ENDBRANCH   1  13
BRANCH   1  15
ATOM     15  CB  ARG A   2     -12.032  -2.131  25.677  0.00  0.00    +0.031 C 
BRANCH  15  16
ATOM     16  CG  ARG A   2     -11.504  -1.900  24.270  0.00  0.00    +0.045 C 
BRANCH  16  17
ATOM     17  CD  ARG A   2     -11.780  -0.503  23.732  0.00  0.00    +0.174 C 
BRANCH  17  18
ATOM     18  NE  ARG A   2     -11.639   0.514  24.760  0.00  0.00    -0.265 N 
ATOM     19  HE  ARG A   2     -10.924   0.354  25.498  0.00  0.00    +0.259 HD
ATOM     20  CZ  ARG A   2     -12.357   1.641  24.832  0.00  0.00    +0.342 C 
ATOM     21  NH2 ARG A   2     -12.141   2.486  25.834  0.00  0.00    -0.292 N 
ATOM     22 HH21 ARG A   2     -11.420   2.268  26.552  0.00  0.00    +0.255 HD
ATOM     23 HH22 ARG A   2     -12.693   3.365  25.901  0.00  0.00    +0.255 HD
ATOM     24  NH1 ARG A   2     -13.278   1.937  23.915  0.00  0.00    -0.292 N 
ATOM     25 HH11 ARG A   2     -13.824   2.819  23.992  0.00  0.00    +0.255 HD
ATOM     26 HH12 ARG A   2     -13.451   1.286  23.123  0.00  0.00    +0.255 HD
ENDBRANCH  17  18
ENDBRANCH  16  17
ENDBRANCH  15  16
ENDBRANCH   1  15
TORSDOF 10
REMARK  Name = ../refined-set-2016/2qm9/2qm9_pocket.pdb
REMARK  241 active torsions:
REMARK  status: ('A' for Active; 'I' for Inactive)
REMARK    1  A    between atoms: _1  and  _3
REMARK    2  A    between atoms: _3  and  _4
REMARK    3  A    between atoms: _3  and  _6
REMARK    4  A    between atoms: _6  and  _7
REMARK    5  A    between atoms: _10  and  _12
REMARK    6  A    between atoms: _12  and  _13
REMARK    7  A    between atoms: _12  and  _15
REMARK    8  A    between atoms: _15  and  _16
REMARK    9  A    between atoms: _18  and  _20
REMARK   10  A    between atoms: _20  and  _21
REMARK   11  A    between atoms: _20  and  _23
REMARK   12  A    between atoms: _23  and  _24
REMARK   13  A    between atoms: _30  and  _32
REMARK   14  A    between atoms: _32  and  _33
REMARK   15  A    between atoms: _32  and  _35
REMARK   16  A    between atoms: _35  and  _36
REMARK   17  A    between atoms: _41  and  _42
REMARK   18  A    between atoms: _44  and  _46
REMARK   19  A    between atoms: _46  and  _47
REMARK   20  A    between atoms: _46  and  _49
REMARK   21  A    between atoms: _49  and  _50
REMARK   22  A    between atoms: _50  and  _51
REMARK   23  A    between atoms: _53  and  _55
REMARK   24  A    between atoms: _55  and  _56
REMARK   25  A    between atoms: _55  and  _58
REMARK   26  A    between atoms: _58  and  _59
REMARK   27  A    between atoms: _59  and  _60
REMARK   28  A    between atoms: _60  and  _61
REMARK   29  A    between atoms: _61  and  _62
REMARK   30  A    between atoms: _66  and  _68
REMARK   31  A    between atoms: _68  and  _69
REMARK   32  A    between atoms: _68  and  _71
REMARK   33  A    between atoms: _74  and  _76
REMARK   34  A    between atoms: _76  and  _77
REMARK   35  A    between atoms: _79  and  _81
REMARK   36  A    between atoms: _81  and  _82
REMARK   37  A    between atoms: _81  and  _84
REMARK   38  A    between atoms: _87  and  _89
REMARK   39  A    between atoms: _89  and  _90
REMARK   40  A    between atoms: _92  and  _94
REMARK   41  A    between atoms: _94  and  _95
REMARK   42  A    between atoms: _94  and  _97
REMARK   43  A    between atoms: _97  and  _98
REMARK   44  A    between atoms: _101  and  _103
REMARK   45  A    between atoms: _103  and  _104
REMARK   46  A    between atoms: _103  and  _106
REMARK   47  A    between atoms: _106  and  _107
REMARK   48  A    between atoms: _107  and  _108
REMARK   49  A    between atoms: _108  and  _109
REMARK   50  A    between atoms: _118  and  _120
REMARK   51  A    between atoms: _120  and  _121
REMARK   52  A    between atoms: _120  and  _123
REMARK   53  A    between atoms: _126  and  _128
REMARK   54  A    between atoms: _128  and  _129
REMARK   55  A    between atoms: _132  and  _134
REMARK   56  A    between atoms: _134  and  _135
REMARK   57  A    between atoms: _137  and  _139
REMARK   58  A    between atoms: _139  and  _140
REMARK   59  A    between atoms: _139  and  _142
REMARK   60  A    between atoms: _142  and  _143
REMARK   61  A    between atoms: _143  and  _144
REMARK   62  A    between atoms: _146  and  _148
REMARK   63  A    between atoms: _148  and  _149
REMARK   64  A    between atoms: _152  and  _154
REMARK   65  A    between atoms: _154  and  _155
REMARK   66  A    between atoms: _154  and  _157
REMARK   67  A    between atoms: _157  and  _158
REMARK   68  A    between atoms: _158  and  _159
REMARK   69  A    between atoms: _159  and  _160
REMARK   70  A    between atoms: _160  and  _161
REMARK   71  A    between atoms: _166  and  _167
REMARK   72  A    between atoms: _172  and  _174
REMARK   73  A    between atoms: _174  and  _175
REMARK   74  A    between atoms: _174  and  _177
REMARK   75  A    between atoms: _177  and  _178
REMARK   76  A    between atoms: _183  and  _185
REMARK   77  A    between atoms: _185  and  _186
REMARK   78  A    between atoms: _185  and  _188
REMARK   79  A    between atoms: _188  and  _189
REMARK   80  A    between atoms: _189  and  _190
REMARK   81  A    between atoms: _192  and  _194
REMARK   82  A    between atoms: _194  and  _195
REMARK   83  A    between atoms: _194  and  _197
REMARK   84  A    between atoms: _197  and  _198
REMARK   85  A    between atoms: _201  and  _203
REMARK   86  A    between atoms: _203  and  _204
REMARK   87  A    between atoms: _203  and  _206
REMARK   88  A    between atoms: _206  and  _207
REMARK   89  A    between atoms: _207  and  _208
REMARK   90  A    between atoms: _208  and  _209
REMARK   91  A    between atoms: _218  and  _220
REMARK   92  A    between atoms: _220  and  _221
REMARK   93  A    between atoms: _220  and  _223
REMARK   94  A    between atoms: _223  and  _224
REMARK   95  A    between atoms: _226  and  _228
REMARK   96  A    between atoms: _228  and  _229
REMARK   97  A    between atoms: _228  and  _231
REMARK   98  A    between atoms: _231  and  _232
REMARK   99  A    between atoms: _232  and  _233
REMARK  100  A    between atoms: _236  and  _238
REMARK  101  A    between atoms: _238  and  _239
REMARK  102  A    between atoms: _238  and  _241
REMARK  103  A    between atoms: _241  and  _242
REMARK  104  A    between atoms: _244  and  _246
REMARK  105  A    between atoms: _246  and  _247
REMARK  106  A    between atoms: _246  and  _249
REMARK  107  A    between atoms: _249  and  _250
REMARK  108  A    between atoms: _253  and  _255
REMARK  109  A    between atoms: _255  and  _256
REMARK  110  A    between atoms: _255  and  _258
REMARK  111  A    between atoms: _258  and  _259
REMARK  112  A    between atoms: _265  and  _267
REMARK  113  A    between atoms: _267  and  _268
REMARK  114  A    between atoms: _267  and  _270
REMARK  115  A    between atoms: _270  and  _271
REMARK  116  A    between atoms: _271  and  _272
REMARK  117  A    between atoms: _272  and  _273
REMARK  118  A    between atoms: _273  and  _274
REMARK  119  A    between atoms: _278  and  _280
REMARK  120  A    between atoms: _280  and  _281
REMARK  121  A    between atoms: _280  and  _283
REMARK  122  A    between atoms: _283  and  _284
REMARK  123  A    between atoms: _289  and  _291
REMARK  124  A    between atoms: _291  and  _292
REMARK  125  A    between atoms: _291  and  _294
REMARK  126  A    between atoms: _294  and  _295
REMARK  127  A    between atoms: _298  and  _300
REMARK  128  A    between atoms: _300  and  _301
REMARK  129  A    between atoms: _300  and  _303
REMARK  130  A    between atoms: _303  and  _304
REMARK  131  A    between atoms: _304  and  _305
REMARK  132  A    between atoms: _308  and  _310
REMARK  133  A    between atoms: _310  and  _311
REMARK  134  A    between atoms: _310  and  _313
REMARK  135  A    between atoms: _313  and  _314
REMARK  136  A    between atoms: _317  and  _319
REMARK  137  A    between atoms: _319  and  _320
REMARK  138  A    between atoms: _319  and  _322
REMARK  139  A    between atoms: _322  and  _323
REMARK  140  A    between atoms: _323  and  _324
REMARK  141  A    between atoms: _327  and  _329
REMARK  142  A    between atoms: _329  and  _330
REMARK  143  A    between atoms: _329  and  _332
REMARK  144  A    between atoms: _332  and  _333
REMARK  145  A    between atoms: _336  and  _338
REMARK  146  A    between atoms: _338  and  _339
REMARK  147  A    between atoms: _338  and  _341
REMARK  148  A    between atoms: _341  and  _342
REMARK  149  A    between atoms: _345  and  _347
REMARK  150  A    between atoms: _347  and  _348
REMARK  151  A    between atoms: _351  and  _353
REMARK  152  A    between atoms: _353  and  _354
REMARK  153  A    between atoms: _353  and  _356
REMARK  154  A    between atoms: _356  and  _357
REMARK  155  A    between atoms: _360  and  _362
REMARK  156  A    between atoms: _362  and  _363
REMARK  157  A    between atoms: _362  and  _365
REMARK  158  A    between atoms: _365  and  _366
REMARK  159  A    between atoms: _369  and  _371
REMARK  160  A    between atoms: _371  and  _372
REMARK  161  A    between atoms: _371  and  _374
REMARK  162  A    between atoms: _374  and  _375
REMARK  163  A    between atoms: _375  and  _376
REMARK  164  A    between atoms: _376  and  _377
REMARK  165  A    between atoms: _386  and  _388
REMARK  166  A    between atoms: _388  and  _389
REMARK  167  A    between atoms: _388  and  _391
REMARK  168  A    between atoms: _391  and  _392
REMARK  169  A    between atoms: _392  and  _393
REMARK  170  A    between atoms: _398  and  _400
REMARK  171  A    between atoms: _400  and  _401
REMARK  172  A    between atoms: _400  and  _403
REMARK  173  A    between atoms: _403  and  _404
REMARK  174  A    between atoms: _404  and  _405
REMARK  175  A    between atoms: _410  and  _412
REMARK  176  A    between atoms: _412  and  _413
REMARK  177  A    between atoms: _412  and  _415
REMARK  178  A    between atoms: _415  and  _416
REMARK  179  A    between atoms: _426  and  _428
REMARK  180  A    between atoms: _428  and  _429
REMARK  181  A    between atoms: _428  and  _431
REMARK  182  A    between atoms: _431  and  _432
REMARK  183  A    between atoms: _435  and  _437
REMARK  184  A    between atoms: _437  and  _438
REMARK  185  A    between atoms: _437  and  _440
REMARK  186  A    between atoms: _440  and  _441
REMARK  187  A    between atoms: _444  and  _446
REMARK  188  A    between atoms: _446  and  _447
REMARK  189  A    between atoms: _446  and  _449
REMARK  190  A    between atoms: _449  and  _450
REMARK  191  A    between atoms: _453  and  _455
REMARK  192  A    between atoms: _455  and  _456
REMARK  193  A    between atoms: _455  and  _458
REMARK  194  A    between atoms: _458  and  _459
REMARK  195  A    between atoms: _459  and  _460
REMARK  196  A    between atoms: _460  and  _461
REMARK  197  A    between atoms: _461  and  _462
REMARK  198  A    between atoms: _466  and  _468
REMARK  199  A    between atoms: _468  and  _469
REMARK  200  A    between atoms: _468  and  _471
REMARK  201  A    between atoms: _471  and  _472
REMARK  202  A    between atoms: _472  and  _473
REMARK  203  A    between atoms: _473  and  _474
REMARK  204  A    between atoms: _483  and  _485
REMARK  205  A    between atoms: _485  and  _486
REMARK  206  A    between atoms: _485  and  _488
REMARK  207  A    between atoms: _491  and  _493
REMARK  208  A    between atoms: _493  and  _494
REMARK  209  A    between atoms: _493  and  _496
REMARK  210  A    between atoms: _496  and  _497
REMARK  211  A    between atoms: _497  and  _498
REMARK  212  A    between atoms: _501  and  _503
REMARK  213  A    between atoms: _503  and  _504
REMARK  214  A    between atoms: _503  and  _506
REMARK  215  A    between atoms: _508  and  _510
REMARK  216  A    between atoms: _510  and  _511
REMARK  217  A    between atoms: _510  and  _513
REMARK  218  A    between atoms: _516  and  _518
REMARK  219  A    between atoms: _518  and  _519
REMARK  220  A    between atoms: _518  and  _521
REMARK  221  A    between atoms: _521  and  _522
REMARK  222  A    between atoms: _524  and  _526
REMARK  223  A    between atoms: _526  and  _527
REMARK  224  A    between atoms: _526  and  _529
REMARK  225  A    between atoms: _529  and  _530
REMARK  226  A    between atoms: _533  and  _535
REMARK  227  A    between atoms: _535  and  _536
REMARK  228  A    between atoms: _535  and  _538
REMARK  229  A    between atoms: _538  and  _539
REMARK  230  A    between atoms: _539  and  _540
REMARK  231  A    between atoms: _540  and  _541
REMARK  232  A    between atoms: _550  and  _552
REMARK  233  A    between atoms: _552  and  _553
REMARK  234  A    between atoms: _552  and  _555
REMARK  235  A    between atoms: _555  and  _556
REMARK  236  A    between atoms: _561  and  _562
REMARK  237  A    between atoms: _564  and  _566
REMARK  238  A    between atoms: _566  and  _567
REMARK  239  A    between atoms: _566  and  _569
REMARK  240  A    between atoms: _569  and  _570
REMARK  241  A    between atoms: _570  and  _571
REMARK                            x       y       z     vdW  Elec       q    Type
REMARK                         _______ _______ _______ _____ _____    ______ ____
ROOT
ATOM      1  CA  LYS A   6      -4.234 -13.075  29.077  0.00  0.00    +0.149 C 
ENDROOT
BRANCH   1   2
ATOM      2  C   LYS A   6      -4.523 -14.461  28.384  0.00  0.00    +0.244 C 
ATOM      3  O   LYS A   6      -4.543 -15.511  29.023  0.00  0.00    -0.273 OA
ATOM      4  N   PRO A   7      -4.757 -14.444  27.075  0.00  0.00    -0.272 N 
ATOM      5  CA  PRO A   7      -5.077 -15.664  26.318  0.00  0.00    +0.152 C 
ATOM      6  CB  PRO A   7      -5.583 -15.104  24.998  0.00  0.00    +0.031 C 
ATOM      7  CG  PRO A   7      -4.761 -13.877  24.843  0.00  0.00    +0.024 C 
ATOM      8  CD  PRO A   7      -4.780 -13.254  26.207  0.00  0.00    +0.094 C 
BRANCH   5   9
ATOM      9  C   PRO A   7      -3.897 -16.587  26.004  0.00  0.00    +0.241 C 
ATOM     10  O   PRO A   7      -2.745 -16.157  25.987  0.00  0.00    -0.273 OA
ATOM     11  N   ASN A   8      -4.212 -17.854  25.753  0.00  0.00    -0.297 N 
ATOM     12  H   ASN A   8      -5.173 -18.184  25.974  0.00  0.00    +0.150 HD
BRANCH  11  13
ATOM     13  CA  ASN A   8      -3.266 -18.793  25.183  0.00  0.00    +0.158 C 
BRANCH  13  14
ATOM     14  C   ASN A   8      -3.500 -18.819  23.668  0.00  0.00    +0.241 C 
ATOM     15  O   ASN A   8      -4.636 -18.722  23.227  0.00  0.00    -0.273 OA
ATOM     16  N   MET A   9      -2.424 -18.926  22.886  0.00  0.00    -0.298 N 
ATOM     17  H   MET A   9      -1.490 -18.981  23.340  0.00  0.00    +0.150 HD
BRANCH  16  18
ATOM     18  CA  MET A   9      -2.485 -18.970  21.432  0.00  0.00    +0.138 C 
BRANCH  18  19
ATOM     19  C   MET A   9      -1.898 -20.286  20.931  0.00  0.00    +0.227 C 
ATOM     20  O   MET A   9      -0.748 -20.614  21.210  0.00  0.00    -0.286 OA
ENDBRANCH  18  19
BRANCH  18  21
ATOM     21  CB  MET A   9      -1.711 -17.799  20.841  0.00  0.00    +0.039 C 
BRANCH  21  22
ATOM     22  CG  MET A   9      -1.963 -17.568  19.361  0.00  0.00    +0.060 C 
BRANCH  22  23
ATOM     23  SD  MET A   9      -0.707 -16.523  18.594  0.00  0.00    -0.139 S 
ATOM     24  CE  MET A   9      -1.263 -14.925  19.103  0.00  0.00    +0.069 C 
ENDBRANCH  22  23
ENDBRANCH  21  22
ENDBRANCH  18  21
ENDBRANCH  16  18
ENDBRANCH  13  14
BRANCH  13  25
ATOM     25  CB  ASN A   8      -3.439 -20.191  25.811  0.00  0.00    +0.114 C 
BRANCH  25  26
ATOM     26  CG  ASN A   8      -2.819 -20.301  27.224  0.00  0.00    +0.222 C 
ATOM     27  OD1 ASN A   8      -3.408 -19.872  28.215  0.00  0.00    -0.275 OA
ATOM     28  ND2 ASN A   8      -1.640 -20.899  27.308  0.00  0.00    -0.329 N 
ATOM     29 HD21 ASN A   8      -1.182 -21.018  28.234  0.00  0.00    +0.145 HD
ATOM     30 HD22 ASN A   8      -1.172 -21.249  26.448  0.00  0.00    +0.145 HD
ENDBRANCH  25  26
ENDBRANCH  13  25
ENDBRANCH  11  13
ENDBRANCH   5   9
ENDBRANCH   1   2
BRANCH   1  33
ATOM     31  C   ALA A   5      -6.577 -12.698  29.701  0.00  0.00    +0.241 C 
ATOM     32  O   ALA A   5      -6.685 -13.880  30.030  0.00  0.00    -0.273 OA
ATOM     33  N   LYS A   6      -5.417 -12.195  29.298  0.00  0.00    -0.297 N 
ATOM     34  H   LYS A   6      -5.332 -11.172  29.134  0.00  0.00    +0.150 HD
BRANCH  31  35
ATOM     35  CA  ALA A   5      -7.821 -11.786  29.754  0.00  0.00    +0.149 C 
ATOM     36  CB  ALA A   5      -8.690 -12.027  28.515  0.00  0.00    +0.031 C 
BRANCH  35  39
ATOM     37  C   MET A   4      -7.490  -9.824  31.183  0.00  0.00    +0.241 C 
ATOM     38  O   MET A   4      -7.174 -10.504  32.154  0.00  0.00    -0.273 OA
ATOM     39  N   ALA A   5      -7.627 -10.338  29.963  0.00  0.00    -0.297 N 
ATOM     40  H   ALA A   5      -7.597  -9.705  29.138  0.00  0.00    +0.150 HD
BRANCH  37  41
ATOM     41  CA  MET A   4      -7.696  -8.318  31.345  0.00  0.00    +0.149 C 
BRANCH  41  43
ATOM     42  C   GLY A   3      -7.273  -6.998  29.330  0.00  0.00    +0.243 C 
ATOM     43  N   MET A   4      -8.126  -7.663  30.107  0.00  0.00    -0.297 N 
ATOM     44  H   MET A   4      -9.126  -7.719  29.827  0.00  0.00    +0.150 HD
ATOM     45  O   GLY A   3      -6.072  -6.951  29.546  0.00  0.00    -0.273 OA
BRANCH  42  46
ATOM     46  CA  GLY A   3      -7.838  -6.279  28.124  0.00  0.00    +0.176 C 
BRANCH  46  48
ATOM     47  C   ALA A   2      -9.290  -7.952  27.092  0.00  0.00    +0.241 C 
ATOM     48  N   GLY A   3      -9.128  -6.772  27.681  0.00  0.00    -0.295 N 
ATOM     49  H   GLY A   3      -9.965  -6.174  27.831  0.00  0.00    +0.150 HD
ATOM     50  O   ALA A   2      -8.387  -8.769  26.969  0.00  0.00    -0.273 OA
BRANCH  47  51
ATOM     51  CA  ALA A   2     -10.699  -8.263  26.590  0.00  0.00    +0.149 C 
ATOM     52  CB  ALA A   2     -10.900  -7.701  25.187  0.00  0.00    +0.031 C 
BRANCH  51  55
ATOM     53  C   VAL A   1     -11.936  -8.300  28.693  0.00  0.00    +0.238 C 
ATOM     54  O   VAL A   1     -11.274  -9.250  29.117  0.00  0.00    -0.274 OA
ATOM     55  N   ALA A   2     -11.713  -7.738  27.510  0.00  0.00    -0.297 N 
ATOM     56  H   ALA A   2     -12.271  -6.906  27.230  0.00  0.00    +0.150 HD
BRANCH  53  57
ATOM     57  CA  VAL A   1     -13.062  -7.704  29.533  0.00  0.00    +0.145 C 
BRANCH  57  58
ATOM     58  CB  VAL A   1     -14.425  -8.350  29.120  0.00  0.00    +0.025 C 
ATOM     59  CG2 VAL A   1     -15.604  -7.695  29.864  0.00  0.00    +0.002 C 
ATOM     60  CG1 VAL A   1     -14.420  -9.874  29.374  0.00  0.00    +0.002 C 
ENDBRANCH  57  58
BRANCH  57  61
ATOM     61  N   VAL A   1     -13.066  -6.251  29.389  0.00  0.00    -0.238 NA
ATOM     62  H   VAL A   1     -13.825  -5.801  28.839  0.00  0.00    +0.142 HD
ENDBRANCH  57  61
ENDBRANCH  53  57
ENDBRANCH  51  55
ENDBRANCH  47  51
ENDBRANCH  46  48
ENDBRANCH  42  46
ENDBRANCH  41  43
BRANCH  41  63
ATOM     63  CB  MET A   4      -8.727  -8.078  32.461  0.00  0.00    +0.041 C 
BRANCH  63  64
ATOM     64  CG  MET A   4      -8.735  -6.661  33.047  0.00  0.00    +0.060 C 
BRANCH  64  65
ATOM     65  SD  MET A   4      -9.762  -6.596  34.544  0.00  0.00    -0.139 S 
ATOM     66  CE  MET A   4     -10.123  -4.746  34.766  0.00  0.00    +0.069 C 
ENDBRANCH  64  65
ENDBRANCH  63  64
ENDBRANCH  41  63
ENDBRANCH  37  41
ENDBRANCH  35  39
ENDBRANCH  31  35
ENDBRANCH   1  33
BRANCH   1  67
ATOM     67  CB  LYS A   6      -3.392 -13.245  30.371  0.00  0.00    +0.029 C 
BRANCH  67  68
ATOM     68  CG  LYS A   6      -4.127 -13.722  31.621  0.00  0.00    +0.000 C 
BRANCH  68  69
ATOM     69  CD  LYS A   6      -3.182 -13.816  32.826  0.00  0.00    -0.024 C 
BRANCH  69  70
ATOM     70  CE  LYS A   6      -3.712 -14.772  33.909  0.00  0.00    -0.086 C 
BRANCH  70  71
ATOM     71  NZ  LYS A   6      -3.464 -14.260  35.294  0.00  0.00    +0.380 N 
ATOM     72  HZ1 LYS A   6      -3.839 -14.940  35.986  0.00  0.00    -0.089 HD
ATOM     73  HZ2 LYS A   6      -2.441 -14.143  35.441  0.00  0.00    -0.089 HD
ATOM     74  HZ3 LYS A   6      -3.940 -13.343  35.414  0.00  0.00    -0.089 HD
ENDBRANCH  70  71
ENDBRANCH  69  70
ENDBRANCH  68  69
ENDBRANCH  67  68
ENDBRANCH   1  67
TORSDOF 31
REMARK  Name = ../refined-set-2016/2qm9/2qm9_pocket.pdb
REMARK  241 active torsions:
REMARK  status: ('A' for Active; 'I' for Inactive)
REMARK    1  A    between atoms: _1  and  _3
REMARK    2  A    between atoms: _3  and  _4
REMARK    3  A    between atoms: _3  and  _6
REMARK    4  A    between atoms: _6  and  _7
REMARK    5  A    between atoms: _10  and  _12
REMARK    6  A    between atoms: _12  and  _13
REMARK    7  A    between atoms: _12  and  _15
REMARK    8  A    between atoms: _15  and  _16
REMARK    9  A    between atoms: _18  and  _20
REMARK   10  A    between atoms: _20  and  _21
REMARK   11  A    between atoms: _20  and  _23
REMARK   12  A    between atoms: _23  and  _24
REMARK   13  A    between atoms: _30  and  _32
REMARK   14  A    between atoms: _32  and  _33
REMARK   15  A    between atoms: _32  and  _35
REMARK   16  A    between atoms: _35  and  _36
REMARK   17  A    between atoms: _41  and  _42
REMARK   18  A    between atoms: _44  and  _46
REMARK   19  A    between atoms: _46  and  _47
REMARK   20  A    between atoms: _46  and  _49
REMARK   21  A    between atoms: _49  and  _50
REMARK   22  A    between atoms: _50  and  _51
REMARK   23  A    between atoms: _53  and  _55
REMARK   24  A    between atoms: _55  and  _56
REMARK   25  A    between atoms: _55  and  _58
REMARK   26  A    between atoms: _58  and  _59
REMARK   27  A    between atoms: _59  and  _60
REMARK   28  A    between atoms: _60  and  _61
REMARK   29  A    between atoms: _61  and  _62
REMARK   30  A    between atoms: _66  and  _68
REMARK   31  A    between atoms: _68  and  _69
REMARK   32  A    between atoms: _68  and  _71
REMARK   33  A    between atoms: _74  and  _76
REMARK   34  A    between atoms: _76  and  _77
REMARK   35  A    between atoms: _79  and  _81
REMARK   36  A    between atoms: _81  and  _82
REMARK   37  A    between atoms: _81  and  _84
REMARK   38  A    between atoms: _87  and  _89
REMARK   39  A    between atoms: _89  and  _90
REMARK   40  A    between atoms: _92  and  _94
REMARK   41  A    between atoms: _94  and  _95
REMARK   42  A    between atoms: _94  and  _97
REMARK   43  A    between atoms: _97  and  _98
REMARK   44  A    between atoms: _101  and  _103
REMARK   45  A    between atoms: _103  and  _104
REMARK   46  A    between atoms: _103  and  _106
REMARK   47  A    between atoms: _106  and  _107
REMARK   48  A    between atoms: _107  and  _108
REMARK   49  A    between atoms: _108  and  _109
REMARK   50  A    between atoms: _118  and  _120
REMARK   51  A    between atoms: _120  and  _121
REMARK   52  A    between atoms: _120  and  _123
REMARK   53  A    between atoms: _126  and  _128
REMARK   54  A    between atoms: _128  and  _129
REMARK   55  A    between atoms: _132  and  _134
REMARK   56  A    between atoms: _134  and  _135
REMARK   57  A    between atoms: _137  and  _139
REMARK   58  A    between atoms: _139  and  _140
REMARK   59  A    between atoms: _139  and  _142
REMARK   60  A    between atoms: _142  and  _143
REMARK   61  A    between atoms: _143  and  _144
REMARK   62  A    between atoms: _146  and  _148
REMARK   63  A    between atoms: _148  and  _149
REMARK   64  A    between atoms: _152  and  _154
REMARK   65  A    between atoms: _154  and  _155
REMARK   66  A    between atoms: _154  and  _157
REMARK   67  A    between atoms: _157  and  _158
REMARK   68  A    between atoms: _158  and  _159
REMARK   69  A    between atoms: _159  and  _160
REMARK   70  A    between atoms: _160  and  _161
REMARK   71  A    between atoms: _166  and  _167
REMARK   72  A    between atoms: _172  and  _174
REMARK   73  A    between atoms: _174  and  _175
REMARK   74  A    between atoms: _174  and  _177
REMARK   75  A    between atoms: _177  and  _178
REMARK   76  A    between atoms: _183  and  _185
REMARK   77  A    between atoms: _185  and  _186
REMARK   78  A    between atoms: _185  and  _188
REMARK   79  A    between atoms: _188  and  _189
REMARK   80  A    between atoms: _189  and  _190
REMARK   81  A    between atoms: _192  and  _194
REMARK   82  A    between atoms: _194  and  _195
REMARK   83  A    between atoms: _194  and  _197
REMARK   84  A    between atoms: _197  and  _198
REMARK   85  A    between atoms: _201  and  _203
REMARK   86  A    between atoms: _203  and  _204
REMARK   87  A    between atoms: _203  and  _206
REMARK   88  A    between atoms: _206  and  _207
REMARK   89  A    between atoms: _207  and  _208
REMARK   90  A    between atoms: _208  and  _209
REMARK   91  A    between atoms: _218  and  _220
REMARK   92  A    between atoms: _220  and  _221
REMARK   93  A    between atoms: _220  and  _223
REMARK   94  A    between atoms: _223  and  _224
REMARK   95  A    between atoms: _226  and  _228
REMARK   96  A    between atoms: _228  and  _229
REMARK   97  A    between atoms: _228  and  _231
REMARK   98  A    between atoms: _231  and  _232
REMARK   99  A    between atoms: _232  and  _233
REMARK  100  A    between atoms: _236  and  _238
REMARK  101  A    between atoms: _238  and  _239
REMARK  102  A    between atoms: _238  and  _241
REMARK  103  A    between atoms: _241  and  _242
REMARK  104  A    between atoms: _244  and  _246
REMARK  105  A    between atoms: _246  and  _247
REMARK  106  A    between atoms: _246  and  _249
REMARK  107  A    between atoms: _249  and  _250
REMARK  108  A    between atoms: _253  and  _255
REMARK  109  A    between atoms: _255  and  _256
REMARK  110  A    between atoms: _255  and  _258
REMARK  111  A    between atoms: _258  and  _259
REMARK  112  A    between atoms: _265  and  _267
REMARK  113  A    between atoms: _267  and  _268
REMARK  114  A    between atoms: _267  and  _270
REMARK  115  A    between atoms: _270  and  _271
REMARK  116  A    between atoms: _271  and  _272
REMARK  117  A    between atoms: _272  and  _273
REMARK  118  A    between atoms: _273  and  _274
REMARK  119  A    between atoms: _278  and  _280
REMARK  120  A    between atoms: _280  and  _281
REMARK  121  A    between atoms: _280  and  _283
REMARK  122  A    between atoms: _283  and  _284
REMARK  123  A    between atoms: _289  and  _291
REMARK  124  A    between atoms: _291  and  _292
REMARK  125  A    between atoms: _291  and  _294
REMARK  126  A    between atoms: _294  and  _295
REMARK  127  A    between atoms: _298  and  _300
REMARK  128  A    between atoms: _300  and  _301
REMARK  129  A    between atoms: _300  and  _303
REMARK  130  A    between atoms: _303  and  _304
REMARK  131  A    between atoms: _304  and  _305
REMARK  132  A    between atoms: _308  and  _310
REMARK  133  A    between atoms: _310  and  _311
REMARK  134  A    between atoms: _310  and  _313
REMARK  135  A    between atoms: _313  and  _314
REMARK  136  A    between atoms: _317  and  _319
REMARK  137  A    between atoms: _319  and  _320
REMARK  138  A    between atoms: _319  and  _322
REMARK  139  A    between atoms: _322  and  _323
REMARK  140  A    between atoms: _323  and  _324
REMARK  141  A    between atoms: _327  and  _329
REMARK  142  A    between atoms: _329  and  _330
REMARK  143  A    between atoms: _329  and  _332
REMARK  144  A    between atoms: _332  and  _333
REMARK  145  A    between atoms: _336  and  _338
REMARK  146  A    between atoms: _338  and  _339
REMARK  147  A    between atoms: _338  and  _341
REMARK  148  A    between atoms: _341  and  _342
REMARK  149  A    between atoms: _345  and  _347
REMARK  150  A    between atoms: _347  and  _348
REMARK  151  A    between atoms: _351  and  _353
REMARK  152  A    between atoms: _353  and  _354
REMARK  153  A    between atoms: _353  and  _356
REMARK  154  A    between atoms: _356  and  _357
REMARK  155  A    between atoms: _360  and  _362
REMARK  156  A    between atoms: _362  and  _363
REMARK  157  A    between atoms: _362  and  _365
REMARK  158  A    between atoms: _365  and  _366
REMARK  159  A    between atoms: _369  and  _371
REMARK  160  A    between atoms: _371  and  _372
REMARK  161  A    between atoms: _371  and  _374
REMARK  162  A    between atoms: _374  and  _375
REMARK  163  A    between atoms: _375  and  _376
REMARK  164  A    between atoms: _376  and  _377
REMARK  165  A    between atoms: _386  and  _388
REMARK  166  A    between atoms: _388  and  _389
REMARK  167  A    between atoms: _388  and  _391
REMARK  168  A    between atoms: _391  and  _392
REMARK  169  A    between atoms: _392  and  _393
REMARK  170  A    between atoms: _398  and  _400
REMARK  171  A    between atoms: _400  and  _401
REMARK  172  A    between atoms: _400  and  _403
REMARK  173  A    between atoms: _403  and  _404
REMARK  174  A    between atoms: _404  and  _405
REMARK  175  A    between atoms: _410  and  _412
REMARK  176  A    between atoms: _412  and  _413
REMARK  177  A    between atoms: _412  and  _415
REMARK  178  A    between atoms: _415  and  _416
REMARK  179  A    between atoms: _426  and  _428
REMARK  180  A    between atoms: _428  and  _429
REMARK  181  A    between atoms: _428  and  _431
REMARK  182  A    between atoms: _431  and  _432
REMARK  183  A    between atoms: _435  and  _437
REMARK  184  A    between atoms: _437  and  _438
REMARK  185  A    between atoms: _437  and  _440
REMARK  186  A    between atoms: _440  and  _441
REMARK  187  A    between atoms: _444  and  _446
REMARK  188  A    between atoms: _446  and  _447
REMARK  189  A    between atoms: _446  and  _449
REMARK  190  A    between atoms: _449  and  _450
REMARK  191  A    between atoms: _453  and  _455
REMARK  192  A    between atoms: _455  and  _456
REMARK  193  A    between atoms: _455  and  _458
REMARK  194  A    between atoms: _458  and  _459
REMARK  195  A    between atoms: _459  and  _460
REMARK  196  A    between atoms: _460  and  _461
REMARK  197  A    between atoms: _461  and  _462
REMARK  198  A    between atoms: _466  and  _468
REMARK  199  A    between atoms: _468  and  _469
REMARK  200  A    between atoms: _468  and  _471
REMARK  201  A    between atoms: _471  and  _472
REMARK  202  A    between atoms: _472  and  _473
REMARK  203  A    between atoms: _473  and  _474
REMARK  204  A    between atoms: _483  and  _485
REMARK  205  A    between atoms: _485  and  _486
REMARK  206  A    between atoms: _485  and  _488
REMARK  207  A    between atoms: _491  and  _493
REMARK  208  A    between atoms: _493  and  _494
REMARK  209  A    between atoms: _493  and  _496
REMARK  210  A    between atoms: _496  and  _497
REMARK  211  A    between atoms: _497  and  _498
REMARK  212  A    between atoms: _501  and  _503
REMARK  213  A    between atoms: _503  and  _504
REMARK  214  A    between atoms: _503  and  _506
REMARK  215  A    between atoms: _508  and  _510
REMARK  216  A    between atoms: _510  and  _511
REMARK  217  A    between atoms: _510  and  _513
REMARK  218  A    between atoms: _516  and  _518
REMARK  219  A    between atoms: _518  and  _519
REMARK  220  A    between atoms: _518  and  _521
REMARK  221  A    between atoms: _521  and  _522
REMARK  222  A    between atoms: _524  and  _526
REMARK  223  A    between atoms: _526  and  _527
REMARK  224  A    between atoms: _526  and  _529
REMARK  225  A    between atoms: _529  and  _530
REMARK  226  A    between atoms: _533  and  _535
REMARK  227  A    between atoms: _535  and  _536
REMARK  228  A    between atoms: _535  and  _538
REMARK  229  A    between atoms: _538  and  _539
REMARK  230  A    between atoms: _539  and  _540
REMARK  231  A    between atoms: _540  and  _541
REMARK  232  A    between atoms: _550  and  _552
REMARK  233  A    between atoms: _552  and  _553
REMARK  234  A    between atoms: _552  and  _555
REMARK  235  A    between atoms: _555  and  _556
REMARK  236  A    between atoms: _561  and  _562
REMARK  237  A    between atoms: _564  and  _566
REMARK  238  A    between atoms: _566  and  _567
REMARK  239  A    between atoms: _566  and  _569
REMARK  240  A    between atoms: _569  and  _570
REMARK  241  A    between atoms: _570  and  _571
REMARK                            x       y       z     vdW  Elec       q    Type
REMARK                         _______ _______ _______ _____ _____    ______ ____
ROOT
ATOM      1  C   THR A   6     -13.265 -15.419  28.544  0.00  0.00    +0.243 C 
ATOM      2  O   THR A   6     -14.494 -15.464  28.511  0.00  0.00    -0.273 OA
ATOM      3  N   PHE A   7     -12.557 -14.497  27.891  0.00  0.00    -0.297 N 
ATOM      4  H   PHE A   7     -11.525 -14.463  28.019  0.00  0.00    +0.150 HD
ENDROOT
BRANCH   1   5
ATOM      5  CA  THR A   6     -12.486 -16.447  29.371  0.00  0.00    +0.176 C 
BRANCH   5   7
ATOM      6  C   SER A   5     -10.940 -17.294  27.666  0.00  0.00    +0.243 C 
ATOM      7  N   THR A   6     -11.141 -16.686  28.835  0.00  0.00    -0.295 N 
ATOM      8  H   THR A   6     -10.317 -16.370  29.386  0.00  0.00    +0.150 HD
ATOM      9  O   SER A   5     -11.845 -17.795  26.988  0.00  0.00    -0.273 OA
BRANCH   6  10
ATOM     10  CA  SER A   5      -9.500 -17.343  27.182  0.00  0.00    +0.178 C 
BRANCH  10  13
ATOM     11  C   GLU A   4      -8.299 -18.472  25.374  0.00  0.00    +0.241 C 
ATOM     12  O   GLU A   4      -7.203 -18.281  25.885  0.00  0.00    -0.273 OA
ATOM     13  N   SER A   5      -9.433 -18.005  25.881  0.00  0.00    -0.295 N 
ATOM     14  H   SER A   5     -10.309 -18.114  25.331  0.00  0.00    +0.150 HD
BRANCH  11  15
ATOM     15  CA  GLU A   4      -8.423 -19.268  24.093  0.00  0.00    +0.149 C 
BRANCH  15  17
ATOM     16  C   SER A   3      -7.961 -18.633  21.787  0.00  0.00    +0.243 C 
ATOM     17  N   GLU A   4      -7.543 -18.750  23.044  0.00  0.00    -0.297 N 
ATOM     18  H   GLU A   4      -6.572 -18.468  23.287  0.00  0.00    +0.150 HD
ATOM     19  O   SER A   3      -9.131 -18.816  21.450  0.00  0.00    -0.273 OA
BRANCH  16  20
ATOM     20  CA  SER A   3      -6.908 -18.271  20.752  0.00  0.00    +0.178 C 
BRANCH  20  22
ATOM     21  C   ARG A   2      -6.173 -19.812  19.043  0.00  0.00    +0.241 C 
ATOM     22  N   SER A   3      -7.141 -19.086  19.578  0.00  0.00    -0.295 N 
ATOM     23  H   SER A   3      -8.087 -19.101  19.147  0.00  0.00    +0.150 HD
ATOM     24  O   ARG A   2      -4.993 -19.693  19.371  0.00  0.00    -0.273 OA
BRANCH  21  25
ATOM     25  CA  ARG A   2      -6.569 -20.801  17.962  0.00  0.00    +0.149 C 
BRANCH  25  27
ATOM     26  C   ILE A   1      -5.668 -20.177  15.778  0.00  0.00    +0.238 C 
ATOM     27  N   ARG A   2      -5.524 -20.741  16.968  0.00  0.00    -0.297 N 
ATOM     28  H   ARG A   2      -4.603 -21.166  17.200  0.00  0.00    +0.150 HD
ATOM     29  O   ILE A   1      -6.684 -19.592  15.418  0.00  0.00    -0.274 OA
BRANCH  26  30
ATOM     30  CA  ILE A   1      -4.450 -20.259  14.867  0.00  0.00    +0.145 C 
BRANCH  30  31
ATOM     31  CB  ILE A   1      -4.058 -18.831  14.462  0.00  0.00    +0.025 C 
ATOM     32  CG2 ILE A   1      -3.815 -17.968  15.729  0.00  0.00    +0.002 C 
BRANCH  31  33
ATOM     33  CG1 ILE A   1      -2.821 -18.866  13.547  0.00  0.00    +0.002 C 
ATOM     34  CD1 ILE A   1      -2.490 -17.517  12.876  0.00  0.00    +0.000 C 
ENDBRANCH  31  33
ENDBRANCH  30  31
BRANCH  30  35
ATOM     35  N   ILE A   1      -4.765 -21.068  13.703  0.00  0.00    -0.238 NA
ATOM     36  H   ILE A   1      -5.527 -20.732  13.080  0.00  0.00    +0.142 HD
ENDBRANCH  30  35
ENDBRANCH  26  30
ENDBRANCH  25  27
BRANCH  25  37
ATOM     37  CB  ARG A   2      -6.610 -22.200  18.554  0.00  0.00    +0.033 C 
BRANCH  37  38
ATOM     38  CG  ARG A   2      -7.906 -22.942  18.425  0.00  0.00    +0.045 C 
BRANCH  38  39
ATOM     39  CD  ARG A   2      -7.730 -24.473  18.496  0.00  0.00    +0.174 C 
BRANCH  39  40
ATOM     40  NE  ARG A   2      -8.230 -25.071  19.743  0.00  0.00    -0.265 N 
ATOM     41  CZ  ARG A   2      -7.591 -25.996  20.506  0.00  0.00    +0.342 C 
ATOM     42  NH2 ARG A   2      -8.191 -26.471  21.612  0.00  0.00    -0.292 N 
ATOM     43 HH21 ARG A   2      -7.709 -27.179  22.202  0.00  0.00    +0.255 HD
ATOM     44 HH22 ARG A   2      -9.137 -26.130  21.878  0.00  0.00    +0.255 HD
ATOM     45  NH1 ARG A   2      -6.376 -26.456  20.193  0.00  0.00    -0.292 N 
ATOM     46 HH11 ARG A   2      -5.916 -27.164  20.800  0.00  0.00    +0.255 HD
ATOM     47 HH12 ARG A   2      -5.891 -26.106  19.343  0.00  0.00    +0.255 HD
ATOM     48  HE  ARG A   2      -9.164 -24.755  20.073  0.00  0.00    +0.259 HD
ENDBRANCH  39  40
ENDBRANCH  38  39
ENDBRANCH  37  38
ENDBRANCH  25  37
ENDBRANCH  21  25
ENDBRANCH  20  22
BRANCH  20  49
ATOM     49  CB  SER A   3      -6.944 -16.791  20.406  0.00  0.00    +0.166 C 
BRANCH  49  50
ATOM     50  OG  SER A   3      -6.595 -16.024  21.539  0.00  0.00    -0.380 OA
ATOM     51  H   SER A   3      -5.682 -16.269  21.833  0.00  0.00    +0.211 HD
ENDBRANCH  49  50
ENDBRANCH  20  49
ENDBRANCH  16  20
ENDBRANCH  15  17
BRANCH  15  52
ATOM     52  CB  GLU A   4      -8.110 -20.736  24.378  0.00  0.00    +0.041 C 
BRANCH  52  53
ATOM     53  CG  GLU A   4      -8.103 -21.616  23.138  0.00  0.00    +0.116 C 
BRANCH  53  54
ATOM     54  CD  GLU A   4      -8.294 -23.096  23.461  0.00  0.00    +0.365 C 
ATOM     55  OE2 GLU A   4      -7.790 -23.568  24.521  0.00  0.00    -0.246 OA
ATOM     56  OE1 GLU A   4      -8.945 -23.789  22.641  0.00  0.00    -0.246 OA
ENDBRANCH  53  54
ENDBRANCH  52  53
ENDBRANCH  15  52
ENDBRANCH  11  15
ENDBRANCH  10  13
BRANCH  10  57
ATOM     57  CB  SER A   5      -8.952 -15.920  27.090  0.00  0.00    +0.166 C 
BRANCH  57  58
ATOM     58  OG  SER A   5      -9.862 -15.076  26.400  0.00  0.00    -0.380 OA
ATOM     59  H   SER A   5     -10.004 -15.425  25.484  0.00  0.00    +0.211 HD
ENDBRANCH  57  58
ENDBRANCH  10  57
ENDBRANCH   6  10
ENDBRANCH   5   7
BRANCH   5  60
ATOM     60  CB  THR A   6     -12.440 -15.995  30.868  0.00  0.00    +0.137 C 
ATOM     61  CG2 THR A   6     -12.433 -17.204  31.810  0.00  0.00    +0.034 C 
BRANCH  60  62
ATOM     62  OG1 THR A   6     -11.206 -15.320  31.157  0.00  0.00    -0.382 OA
ATOM     63  HG1 THR A   6     -10.448 -15.932  30.984  0.00  0.00    +0.210 HD
ENDBRANCH  60  62
ENDBRANCH   5  60
ENDBRANCH   1   5
BRANCH   3  64
ATOM     64  CA  PHE A   7     -13.198 -13.533  27.000  0.00  0.00    +0.153 C 
BRANCH  64  65
ATOM     65  C   PHE A   7     -13.814 -14.218  25.784  0.00  0.00    +0.241 C 
ATOM     66  O   PHE A   7     -15.011 -14.109  25.567  0.00  0.00    -0.273 OA
ATOM     67  N   LYS A   8     -12.995 -14.887  24.979  0.00  0.00    -0.297 N 
ATOM     68  H   LYS A   8     -11.968 -14.837  25.138  0.00  0.00    +0.150 HD
BRANCH  67  69
ATOM     69  CA  LYS A   8     -13.514 -15.694  23.870  0.00  0.00    +0.149 C 
BRANCH  69  70
ATOM     70  C   LYS A   8     -12.567 -16.783  23.374  0.00  0.00    +0.241 C 
ATOM     71  O   LYS A   8     -11.363 -16.662  23.492  0.00  0.00    -0.273 OA
ATOM     72  N   ASN A   9     -13.147 -17.852  22.834  0.00  0.00    -0.297 N 
ATOM     73  H   ASN A   9     -14.177 -17.959  22.932  0.00  0.00    +0.150 HD
BRANCH  72  74
ATOM     74  CA  ASN A   9     -12.408 -18.880  22.111  0.00  0.00    +0.158 C 
BRANCH  74  75
ATOM     75  C   ASN A   9     -12.678 -18.712  20.625  0.00  0.00    +0.241 C 
ATOM     76  O   ASN A   9     -13.812 -18.827  20.195  0.00  0.00    -0.273 OA
ATOM     77  N   THR A  10     -11.641 -18.400  19.856  0.00  0.00    -0.295 N 
ATOM     78  H   THR A  10     -10.725 -18.206  20.309  0.00  0.00    +0.150 HD
BRANCH  77  79
ATOM     79  CA  THR A  10     -11.733 -18.317  18.394  0.00  0.00    +0.176 C 
BRANCH  79  80
ATOM     80  C   THR A  10     -10.752 -19.254  17.735  0.00  0.00    +0.243 C 
ATOM     81  O   THR A  10      -9.839 -19.799  18.367  0.00  0.00    -0.273 OA
ATOM     82  N   GLU A  11     -10.946 -19.412  16.438  0.00  0.00    -0.297 N 
ATOM     83  H   GLU A  11     -11.725 -18.893  15.984  0.00  0.00    +0.150 HD
BRANCH  82  84
ATOM     84  CA  GLU A  11     -10.122 -20.275  15.622  0.00  0.00    +0.149 C 
BRANCH  84  85
ATOM     85  C   GLU A  11     -10.234 -19.810  14.186  0.00  0.00    +0.241 C 
ATOM     86  O   GLU A  11     -11.341 -19.647  13.675  0.00  0.00    -0.273 OA
ATOM     87  N   ILE A  12      -9.088 -19.589  13.547  0.00  0.00    -0.298 N 
ATOM     88  H   ILE A  12      -8.200 -19.570  14.088  0.00  0.00    +0.150 HD
BRANCH  87  89
ATOM     89  CA  ILE A  12      -9.050 -19.373  12.104  0.00  0.00    +0.137 C 
BRANCH  89  90
ATOM     90  C   ILE A  12      -8.279 -20.486  11.430  0.00  0.00    +0.227 C 
ATOM     91  O   ILE A  12      -7.300 -20.989  11.973  0.00  0.00    -0.286 OA
ENDBRANCH  89  90
BRANCH  89  92
ATOM     92  CB  ILE A  12      -8.480 -17.975  11.725  0.00  0.00    +0.026 C 
ATOM     93  CG2 ILE A  12      -9.446 -16.897  12.194  0.00  0.00    +0.002 C 
BRANCH  92  94
ATOM     94  CG1 ILE A  12      -7.081 -17.741  12.310  0.00  0.00    +0.002 C 
ATOM     95  CD1 ILE A  12      -6.374 -16.446  11.828  0.00  0.00    +0.000 C 
ENDBRANCH  92  94
ENDBRANCH  89  92
ENDBRANCH  87  89
ENDBRANCH  84  85
BRANCH  84  96
ATOM     96  CB  GLU A  11     -10.597 -21.722  15.730  0.00  0.00    +0.041 C 
BRANCH  96  97
ATOM     97  CG  GLU A  11      -9.748 -22.705  14.952  0.00  0.00    +0.116 C 
BRANCH  97  98
ATOM     98  CD  GLU A  11     -10.302 -24.109  14.964  0.00  0.00    +0.365 C 
ATOM     99  OE2 GLU A  11     -11.232 -24.381  15.744  0.00  0.00    -0.246 OA
ATOM    100  OE1 GLU A  11      -9.809 -24.943  14.186  0.00  0.00    -0.246 OA
ENDBRANCH  97  98
ENDBRANCH  96  97
ENDBRANCH  84  96
ENDBRANCH  82  84
ENDBRANCH  79  80
BRANCH  79 101
ATOM    101  CB  THR A  10     -11.406 -16.915  17.889  0.00  0.00    +0.137 C 
ATOM    102  CG2 THR A  10     -12.266 -15.859  18.575  0.00  0.00    +0.034 C 
BRANCH 101 103
ATOM    103  OG1 THR A  10     -10.054 -16.587  18.245  0.00  0.00    -0.382 OA
ATOM    104  HG1 THR A  10      -9.957 -16.617  19.230  0.00  0.00    +0.210 HD
ENDBRANCH 101 103
ENDBRANCH  79 101
ENDBRANCH  77  79
ENDBRANCH  74  75
BRANCH  74 105
ATOM    105  CB  ASN A   9     -12.839 -20.288  22.538  0.00  0.00    +0.114 C 
BRANCH 105 106
ATOM    106  CG  ASN A   9     -12.589 -20.564  24.007  0.00  0.00    +0.222 C 
ATOM    107  ND2 ASN A   9     -13.558 -21.175  24.655  0.00  0.00    -0.329 N 
ATOM    108 HD21 ASN A   9     -13.447 -21.402  25.664  0.00  0.00    +0.145 HD
ATOM    109 HD22 ASN A   9     -14.435 -21.431  24.158  0.00  0.00    +0.145 HD
ATOM    110  OD1 ASN A   9     -11.532 -20.239  24.547  0.00  0.00    -0.275 OA
ENDBRANCH 105 106
ENDBRANCH  74 105
ENDBRANCH  72  74
ENDBRANCH  69  70
BRANCH  69 111
ATOM    111  CB  LYS A   8     -13.953 -14.818  22.682  0.00  0.00    +0.029 C 
BRANCH 111 112
ATOM    112  CG  LYS A   8     -15.472 -14.892  22.444  0.00  0.00    +0.000 C 
BRANCH 112 113
ATOM    113  CD  LYS A   8     -15.910 -14.518  21.028  0.00  0.00    -0.024 C 
BRANCH 113 114
ATOM    114  CE  LYS A   8     -17.435 -14.288  20.968  0.00  0.00    -0.086 C 
BRANCH 114 115
ATOM    115  NZ  LYS A   8     -18.167 -15.369  20.220  0.00  0.00    +0.380 N 
ATOM    116  HZ1 LYS A   8     -18.004 -16.284  20.688  0.00  0.00    -0.089 HD
ATOM    117  HZ2 LYS A   8     -19.185 -15.157  20.215  0.00  0.00    -0.089 HD
ATOM    118  HZ3 LYS A   8     -17.816 -15.411  19.242  0.00  0.00    -0.089 HD
ENDBRANCH 114 115
ENDBRANCH 113 114
ENDBRANCH 112 113
ENDBRANCH 111 112
ENDBRANCH  69 111
ENDBRANCH  67  69
ENDBRANCH  64  65
BRANCH  64 119
ATOM    119  CB  PHE A   7     -12.217 -12.453  26.528  0.00  0.00    +0.055 C 
BRANCH 119 120
ATOM    120  CG  PHE A   7     -12.780 -11.566  25.445  0.00  0.00    -0.020 A 
ATOM    121  CD2 PHE A   7     -13.987 -10.906  25.632  0.00  0.00    -0.004 A 
ATOM    122  CE2 PHE A   7     -14.525 -10.095  24.627  0.00  0.00    -0.000 A 
ATOM    123  CZ  PHE A   7     -13.857  -9.947  23.428  0.00  0.00    -0.000 A 
ATOM    124  CE1 PHE A   7     -12.658 -10.599  23.227  0.00  0.00    -0.000 A 
ATOM    125  CD1 PHE A   7     -12.127 -11.417  24.227  0.00  0.00    -0.004 A 
ENDBRANCH 119 120
ENDBRANCH  64 119
ENDBRANCH   3  64
TORSDOF 55
REMARK  Name = ../refined-set-2016/2qm9/2qm9_pocket.pdb
REMARK  241 active torsions:
REMARK  status: ('A' for Active; 'I' for Inactive)
REMARK    1  A    between atoms: _1  and  _3
REMARK    2  A    between atoms: _3  and  _4
REMARK    3  A    between atoms: _3  and  _6
REMARK    4  A    between atoms: _6  and  _7
REMARK    5  A    between atoms: _10  and  _12
REMARK    6  A    between atoms: _12  and  _13
REMARK    7  A    between atoms: _12  and  _15
REMARK    8  A    between atoms: _15  and  _16
REMARK    9  A    between atoms: _18  and  _20
REMARK   10  A    between atoms: _20  and  _21
REMARK   11  A    between atoms: _20  and  _23
REMARK   12  A    between atoms: _23  and  _24
REMARK   13  A    between atoms: _30  and  _32
REMARK   14  A    between atoms: _32  and  _33
REMARK   15  A    between atoms: _32  and  _35
REMARK   16  A    between atoms: _35  and  _36
REMARK   17  A    between atoms: _41  and  _42
REMARK   18  A    between atoms: _44  and  _46
REMARK   19  A    between atoms: _46  and  _47
REMARK   20  A    between atoms: _46  and  _49
REMARK   21  A    between atoms: _49  and  _50
REMARK   22  A    between atoms: _50  and  _51
REMARK   23  A    between atoms: _53  and  _55
REMARK   24  A    between atoms: _55  and  _56
REMARK   25  A    between atoms: _55  and  _58
REMARK   26  A    between atoms: _58  and  _59
REMARK   27  A    between atoms: _59  and  _60
REMARK   28  A    between atoms: _60  and  _61
REMARK   29  A    between atoms: _61  and  _62
REMARK   30  A    between atoms: _66  and  _68
REMARK   31  A    between atoms: _68  and  _69
REMARK   32  A    between atoms: _68  and  _71
REMARK   33  A    between atoms: _74  and  _76
REMARK   34  A    between atoms: _76  and  _77
REMARK   35  A    between atoms: _79  and  _81
REMARK   36  A    between atoms: _81  and  _82
REMARK   37  A    between atoms: _81  and  _84
REMARK   38  A    between atoms: _87  and  _89
REMARK   39  A    between atoms: _89  and  _90
REMARK   40  A    between atoms: _92  and  _94
REMARK   41  A    between atoms: _94  and  _95
REMARK   42  A    between atoms: _94  and  _97
REMARK   43  A    between atoms: _97  and  _98
REMARK   44  A    between atoms: _101  and  _103
REMARK   45  A    between atoms: _103  and  _104
REMARK   46  A    between atoms: _103  and  _106
REMARK   47  A    between atoms: _106  and  _107
REMARK   48  A    between atoms: _107  and  _108
REMARK   49  A    between atoms: _108  and  _109
REMARK   50  A    between atoms: _118  and  _120
REMARK   51  A    between atoms: _120  and  _121
REMARK   52  A    between atoms: _120  and  _123
REMARK   53  A    between atoms: _126  and  _128
REMARK   54  A    between atoms: _128  and  _129
REMARK   55  A    between atoms: _132  and  _134
REMARK   56  A    between atoms: _134  and  _135
REMARK   57  A    between atoms: _137  and  _139
REMARK   58  A    between atoms: _139  and  _140
REMARK   59  A    between atoms: _139  and  _142
REMARK   60  A    between atoms: _142  and  _143
REMARK   61  A    between atoms: _143  and  _144
REMARK   62  A    between atoms: _146  and  _148
REMARK   63  A    between atoms: _148  and  _149
REMARK   64  A    between atoms: _152  and  _154
REMARK   65  A    between atoms: _154  and  _155
REMARK   66  A    between atoms: _154  and  _157
REMARK   67  A    between atoms: _157  and  _158
REMARK   68  A    between atoms: _158  and  _159
REMARK   69  A    between atoms: _159  and  _160
REMARK   70  A    between atoms: _160  and  _161
REMARK   71  A    between atoms: _166  and  _167
REMARK   72  A    between atoms: _172  and  _174
REMARK   73  A    between atoms: _174  and  _175
REMARK   74  A    between atoms: _174  and  _177
REMARK   75  A    between atoms: _177  and  _178
REMARK   76  A    between atoms: _183  and  _185
REMARK   77  A    between atoms: _185  and  _186
REMARK   78  A    between atoms: _185  and  _188
REMARK   79  A    between atoms: _188  and  _189
REMARK   80  A    between atoms: _189  and  _190
REMARK   81  A    between atoms: _192  and  _194
REMARK   82  A    between atoms: _194  and  _195
REMARK   83  A    between atoms: _194  and  _197
REMARK   84  A    between atoms: _197  and  _198
REMARK   85  A    between atoms: _201  and  _203
REMARK   86  A    between atoms: _203  and  _204
REMARK   87  A    between atoms: _203  and  _206
REMARK   88  A    between atoms: _206  and  _207
REMARK   89  A    between atoms: _207  and  _208
REMARK   90  A    between atoms: _208  and  _209
REMARK   91  A    between atoms: _218  and  _220
REMARK   92  A    between atoms: _220  and  _221
REMARK   93  A    between atoms: _220  and  _223
REMARK   94  A    between atoms: _223  and  _224
REMARK   95  A    between atoms: _226  and  _228
REMARK   96  A    between atoms: _228  and  _229
REMARK   97  A    between atoms: _228  and  _231
REMARK   98  A    between atoms: _231  and  _232
REMARK   99  A    between atoms: _232  and  _233
REMARK  100  A    between atoms: _236  and  _238
REMARK  101  A    between atoms: _238  and  _239
REMARK  102  A    between atoms: _238  and  _241
REMARK  103  A    between atoms: _241  and  _242
REMARK  104  A    between atoms: _244  and  _246
REMARK  105  A    between atoms: _246  and  _247
REMARK  106  A    between atoms: _246  and  _249
REMARK  107  A    between atoms: _249  and  _250
REMARK  108  A    between atoms: _253  and  _255
REMARK  109  A    between atoms: _255  and  _256
REMARK  110  A    between atoms: _255  and  _258
REMARK  111  A    between atoms: _258  and  _259
REMARK  112  A    between atoms: _265  and  _267
REMARK  113  A    between atoms: _267  and  _268
REMARK  114  A    between atoms: _267  and  _270
REMARK  115  A    between atoms: _270  and  _271
REMARK  116  A    between atoms: _271  and  _272
REMARK  117  A    between atoms: _272  and  _273
REMARK  118  A    between atoms: _273  and  _274
REMARK  119  A    between atoms: _278  and  _280
REMARK  120  A    between atoms: _280  and  _281
REMARK  121  A    between atoms: _280  and  _283
REMARK  122  A    between atoms: _283  and  _284
REMARK  123  A    between atoms: _289  and  _291
REMARK  124  A    between atoms: _291  and  _292
REMARK  125  A    between atoms: _291  and  _294
REMARK  126  A    between atoms: _294  and  _295
REMARK  127  A    between atoms: _298  and  _300
REMARK  128  A    between atoms: _300  and  _301
REMARK  129  A    between atoms: _300  and  _303
REMARK  130  A    between atoms: _303  and  _304
REMARK  131  A    between atoms: _304  and  _305
REMARK  132  A    between atoms: _308  and  _310
REMARK  133  A    between atoms: _310  and  _311
REMARK  134  A    between atoms: _310  and  _313
REMARK  135  A    between atoms: _313  and  _314
REMARK  136  A    between atoms: _317  and  _319
REMARK  137  A    between atoms: _319  and  _320
REMARK  138  A    between atoms: _319  and  _322
REMARK  139  A    between atoms: _322  and  _323
REMARK  140  A    between atoms: _323  and  _324
REMARK  141  A    between atoms: _327  and  _329
REMARK  142  A    between atoms: _329  and  _330
REMARK  143  A    between atoms: _329  and  _332
REMARK  144  A    between atoms: _332  and  _333
REMARK  145  A    between atoms: _336  and  _338
REMARK  146  A    between atoms: _338  and  _339
REMARK  147  A    between atoms: _338  and  _341
REMARK  148  A    between atoms: _341  and  _342
REMARK  149  A    between atoms: _345  and  _347
REMARK  150  A    between atoms: _347  and  _348
REMARK  151  A    between atoms: _351  and  _353
REMARK  152  A    between atoms: _353  and  _354
REMARK  153  A    between atoms: _353  and  _356
REMARK  154  A    between atoms: _356  and  _357
REMARK  155  A    between atoms: _360  and  _362
REMARK  156  A    between atoms: _362  and  _363
REMARK  157  A    between atoms: _362  and  _365
REMARK  158  A    between atoms: _365  and  _366
REMARK  159  A    between atoms: _369  and  _371
REMARK  160  A    between atoms: _371  and  _372
REMARK  161  A    between atoms: _371  and  _374
REMARK  162  A    between atoms: _374  and  _375
REMARK  163  A    between atoms: _375  and  _376
REMARK  164  A    between atoms: _376  and  _377
REMARK  165  A    between atoms: _386  and  _388
REMARK  166  A    between atoms: _388  and  _389
REMARK  167  A    between atoms: _388  and  _391
REMARK  168  A    between atoms: _391  and  _392
REMARK  169  A    between atoms: _392  and  _393
REMARK  170  A    between atoms: _398  and  _400
REMARK  171  A    between atoms: _400  and  _401
REMARK  172  A    between atoms: _400  and  _403
REMARK  173  A    between atoms: _403  and  _404
REMARK  174  A    between atoms: _404  and  _405
REMARK  175  A    between atoms: _410  and  _412
REMARK  176  A    between atoms: _412  and  _413
REMARK  177  A    between atoms: _412  and  _415
REMARK  178  A    between atoms: _415  and  _416
REMARK  179  A    between atoms: _426  and  _428
REMARK  180  A    between atoms: _428  and  _429
REMARK  181  A    between atoms: _428  and  _431
REMARK  182  A    between atoms: _431  and  _432
REMARK  183  A    between atoms: _435  and  _437
REMARK  184  A    between atoms: _437  and  _438
REMARK  185  A    between atoms: _437  and  _440
REMARK  186  A    between atoms: _440  and  _441
REMARK  187  A    between atoms: _444  and  _446
REMARK  188  A    between atoms: _446  and  _447
REMARK  189  A    between atoms: _446  and  _449
REMARK  190  A    between atoms: _449  and  _450
REMARK  191  A    between atoms: _453  and  _455
REMARK  192  A    between atoms: _455  and  _456
REMARK  193  A    between atoms: _455  and  _458
REMARK  194  A    between atoms: _458  and  _459
REMARK  195  A    between atoms: _459  and  _460
REMARK  196  A    between atoms: _460  and  _461
REMARK  197  A    between atoms: _461  and  _462
REMARK  198  A    between atoms: _466  and  _468
REMARK  199  A    between atoms: _468  and  _469
REMARK  200  A    between atoms: _468  and  _471
REMARK  201  A    between atoms: _471  and  _472
REMARK  202  A    between atoms: _472  and  _473
REMARK  203  A    between atoms: _473  and  _474
REMARK  204  A    between atoms: _483  and  _485
REMARK  205  A    between atoms: _485  and  _486
REMARK  206  A    between atoms: _485  and  _488
REMARK  207  A    between atoms: _491  and  _493
REMARK  208  A    between atoms: _493  and  _494
REMARK  209  A    between atoms: _493  and  _496
REMARK  210  A    between atoms: _496  and  _497
REMARK  211  A    between atoms: _497  and  _498
REMARK  212  A    between atoms: _501  and  _503
REMARK  213  A    between atoms: _503  and  _504
REMARK  214  A    between atoms: _503  and  _506
REMARK  215  A    between atoms: _508  and  _510
REMARK  216  A    between atoms: _510  and  _511
REMARK  217  A    between atoms: _510  and  _513
REMARK  218  A    between atoms: _516  and  _518
REMARK  219  A    between atoms: _518  and  _519
REMARK  220  A    between atoms: _518  and  _521
REMARK  221  A    between atoms: _521  and  _522
REMARK  222  A    between atoms: _524  and  _526
REMARK  223  A    between atoms: _526  and  _527
REMARK  224  A    between atoms: _526  and  _529
REMARK  225  A    between atoms: _529  and  _530
REMARK  226  A    between atoms: _533  and  _535
REMARK  227  A    between atoms: _535  and  _536
REMARK  228  A    between atoms: _535  and  _538
REMARK  229  A    between atoms: _538  and  _539
REMARK  230  A    between atoms: _539  and  _540
REMARK  231  A    between atoms: _540  and  _541
REMARK  232  A    between atoms: _550  and  _552
REMARK  233  A    between atoms: _552  and  _553
REMARK  234  A    between atoms: _552  and  _555
REMARK  235  A    between atoms: _555  and  _556
REMARK  236  A    between atoms: _561  and  _562
REMARK  237  A    between atoms: _564  and  _566
REMARK  238  A    between atoms: _566  and  _567
REMARK  239  A    between atoms: _566  and  _569
REMARK  240  A    between atoms: _569  and  _570
REMARK  241  A    between atoms: _570  and  _571
REMARK                            x       y       z     vdW  Elec       q    Type
REMARK                         _______ _______ _______ _____ _____    ______ ____
ROOT
ATOM      1  C   ALA A   4     -14.405 -10.840  19.102  0.00  0.00    +0.241 C 
ATOM      2  O   ALA A   4     -15.239 -11.125  19.958  0.00  0.00    -0.273 OA
ATOM      3  N   ASP A   5     -14.334  -9.653  18.500  0.00  0.00    -0.297 N 
ATOM      4  H   ASP A   5     -13.627  -9.538  17.746  0.00  0.00    +0.150 HD
ENDROOT
BRANCH   1   5
ATOM      5  CA  ALA A   4     -13.389 -11.882  18.636  0.00  0.00    +0.149 C 
ATOM      6  CB  ALA A   4     -12.175 -11.858  19.528  0.00  0.00    +0.031 C 
BRANCH   5   8
ATOM      7  C   THR A   3     -13.803 -11.730  16.220  0.00  0.00    +0.243 C 
ATOM      8  N   ALA A   4     -12.964 -11.710  17.248  0.00  0.00    -0.297 N 
ATOM      9  H   ALA A   4     -11.952 -11.564  17.056  0.00  0.00    +0.150 HD
ATOM     10  O   THR A   3     -15.015 -11.852  16.337  0.00  0.00    -0.273 OA
BRANCH   7  11
ATOM     11  CA  THR A   3     -13.147 -11.553  14.848  0.00  0.00    +0.176 C 
BRANCH  11  14
ATOM     12  C   ILE A   2     -14.565 -13.027  13.491  0.00  0.00    +0.241 C 
ATOM     13  O   ILE A   2     -14.248 -14.012  14.143  0.00  0.00    -0.273 OA
ATOM     14  N   THR A   3     -14.083 -11.811  13.744  0.00  0.00    -0.295 N 
ATOM     15  H   THR A   3     -14.379 -11.018  13.140  0.00  0.00    +0.150 HD
BRANCH  12  16
ATOM     16  CA  ILE A   2     -15.526 -13.159  12.307  0.00  0.00    +0.148 C 
BRANCH  16  18
ATOM     17  C   GLU A   1     -14.216 -13.274  10.237  0.00  0.00    +0.238 C 
ATOM     18  N   ILE A   2     -14.834 -13.895  11.245  0.00  0.00    -0.297 N 
ATOM     19  H   ILE A   2     -14.824 -14.934  11.277  0.00  0.00    +0.150 HD
ATOM     20  O   GLU A   1     -14.370 -12.078   9.987  0.00  0.00    -0.274 OA
BRANCH  17  21
ATOM     21  CA  GLU A   1     -13.287 -14.118   9.368  0.00  0.00    +0.145 C 
BRANCH  21  22
ATOM     22  N   GLU A   1     -13.582 -13.918   7.966  0.00  0.00    -0.238 NA
ATOM     23  H   GLU A   1     -13.905 -12.983   7.645  0.00  0.00    +0.142 HD
ENDBRANCH  21  22
BRANCH  21  24
ATOM     24  CB  GLU A   1     -11.827 -13.725   9.630  0.00  0.00    +0.038 C 
BRANCH  24  25
ATOM     25  CG  GLU A   1     -11.374 -13.921  11.067  0.00  0.00    +0.116 C 
BRANCH  25  26
ATOM     26  CD  GLU A   1     -10.090 -13.168  11.437  0.00  0.00    +0.365 C 
ATOM     27  OE2 GLU A   1      -9.856 -12.981  12.650  0.00  0.00    -0.246 OA
ATOM     28  OE1 GLU A   1      -9.307 -12.757  10.547  0.00  0.00    -0.246 OA
ENDBRANCH  25  26
ENDBRANCH  24  25
ENDBRANCH  21  24
ENDBRANCH  17  21
ENDBRANCH  16  18
BRANCH  16  29
ATOM     29  CB  ILE A   2     -16.822 -13.880  12.726  0.00  0.00    +0.027 C 
ATOM     30  CG2 ILE A   2     -17.578 -13.085  13.828  0.00  0.00    +0.002 C 
BRANCH  29  31
ATOM     31  CG1 ILE A   2     -17.726 -14.102  11.514  0.00  0.00    +0.002 C 
ATOM     32  CD1 ILE A   2     -18.087 -12.808  10.725  0.00  0.00    +0.000 C 
ENDBRANCH  29  31
ENDBRANCH  16  29
ENDBRANCH  12  16
ENDBRANCH  11  14
BRANCH  11  33
ATOM     33  CB  THR A   3     -12.546 -10.121  14.787  0.00  0.00    +0.137 C 
ATOM     34  CG2 THR A   3     -11.949  -9.798  13.415  0.00  0.00    +0.034 C 
BRANCH  33  35
ATOM     35  OG1 THR A   3     -13.585  -9.152  14.985  0.00  0.00    -0.382 OA
ATOM     36  HG1 THR A   3     -13.198  -8.242  14.945  0.00  0.00    +0.210 HD
ENDBRANCH  33  35
ENDBRANCH  11  33
ENDBRANCH   7  11
ENDBRANCH   5   8
ENDBRANCH   1   5
BRANCH   3  37
ATOM     37  CA  ASP A   5     -15.172  -8.506  18.818  0.00  0.00    +0.160 C 
BRANCH  37  38
ATOM     38  C   ASP A   5     -16.287  -8.294  17.770  0.00  0.00    +0.241 C 
ATOM     39  O   ASP A   5     -16.929  -7.243  17.721  0.00  0.00    -0.273 OA
ATOM     40  N   ASP A   6     -16.506  -9.320  16.948  0.00  0.00    -0.297 N 
ATOM     41  H   ASP A   6     -15.843 -10.120  16.997  0.00  0.00    +0.150 HD
BRANCH  40  42
ATOM     42  CA  ASP A   6     -17.616  -9.417  15.970  0.00  0.00    +0.160 C 
BRANCH  42  43
ATOM     43  C   ASP A   6     -17.630  -8.507  14.751  0.00  0.00    +0.241 C 
ATOM     44  N   ARG A   7     -16.448  -8.045  14.368  0.00  0.00    -0.298 N 
ATOM     45  H   ARG A   7     -15.664  -8.013  15.050  0.00  0.00    +0.150 HD
ATOM     46  O   ASP A   6     -18.683  -8.257  14.152  0.00  0.00    -0.273 OA
BRANCH  44  47
ATOM     47  CA  ARG A   7     -16.233  -7.582  13.005  0.00  0.00    +0.137 C 
BRANCH  47  48
ATOM     48  C   ARG A   7     -16.240  -8.783  12.045  0.00  0.00    +0.227 C 
ATOM     49  O   ARG A   7     -15.703  -9.834  12.348  0.00  0.00    -0.286 OA
ENDBRANCH  47  48
BRANCH  47  50
ATOM     50  CB  ARG A   7     -14.909  -6.822  12.886  0.00  0.00    +0.031 C 
BRANCH  50  51
ATOM     51  CG  ARG A   7     -14.962  -5.398  13.441  0.00  0.00    +0.045 C 
BRANCH  51  52
ATOM     52  CD  ARG A   7     -13.608  -4.734  13.521  0.00  0.00    +0.174 C 
BRANCH  52  53
ATOM     53  NE  ARG A   7     -12.736  -5.486  14.411  0.00  0.00    -0.265 N 
ATOM     54  HE  ARG A   7     -13.104  -5.717  15.356  0.00  0.00    +0.259 HD
ATOM     55  CZ  ARG A   7     -11.510  -5.901  14.117  0.00  0.00    +0.342 C 
ATOM     56  NH2 ARG A   7     -10.855  -6.597  15.026  0.00  0.00    -0.292 N 
ATOM     57 HH21 ARG A   7     -11.301  -6.806  15.942  0.00  0.00    +0.255 HD
ATOM     58 HH22 ARG A   7      -9.892  -6.937  14.827  0.00  0.00    +0.255 HD
ATOM     59  NH1 ARG A   7     -10.935  -5.670  12.931  0.00  0.00    -0.292 N 
ATOM     60 HH11 ARG A   7      -9.972  -6.014  12.744  0.00  0.00    +0.255 HD
ATOM     61 HH12 ARG A   7     -11.452  -5.146  12.196  0.00  0.00    +0.255 HD
ENDBRANCH  52  53
ENDBRANCH  51  52
ENDBRANCH  50  51
ENDBRANCH  47  50
ENDBRANCH  44  47
ENDBRANCH  42  43
BRANCH  42  62
ATOM     62  CB  ASP A   6     -18.979  -9.434  16.660  0.00  0.00    +0.143 C 
BRANCH  62  63
ATOM     63  CG  ASP A   6     -19.550 -10.824  16.701  0.00  0.00    +0.367 C 
ATOM     64  OD2 ASP A   6     -19.145 -11.646  17.552  0.00  0.00    -0.246 OA
ATOM     65  OD1 ASP A   6     -20.395 -11.182  15.829  0.00  0.00    -0.246 OA
ENDBRANCH  62  63
ENDBRANCH  42  62
ENDBRANCH  40  42
ENDBRANCH  37  38
BRANCH  37  66
ATOM     66  CB  ASP A   5     -14.302  -7.253  18.937  0.00  0.00    +0.143 C 
BRANCH  66  67
ATOM     67  CG  ASP A   5     -13.485  -6.967  17.674  0.00  0.00    +0.367 C 
ATOM     68  OD2 ASP A   5     -12.687  -7.839  17.251  0.00  0.00    -0.246 OA
ATOM     69  OD1 ASP A   5     -13.572  -5.885  17.046  0.00  0.00    -0.246 OA
ENDBRANCH  66  67
ENDBRANCH  37  66
ENDBRANCH   3  37
TORSDOF 29
REMARK  Name = ../refined-set-2016/2qm9/2qm9_pocket.pdb
REMARK  241 active torsions:
REMARK  status: ('A' for Active; 'I' for Inactive)
REMARK    1  A    between atoms: _1  and  _3
REMARK    2  A    between atoms: _3  and  _4
REMARK    3  A    between atoms: _3  and  _6
REMARK    4  A    between atoms: _6  and  _7
REMARK    5  A    between atoms: _10  and  _12
REMARK    6  A    between atoms: _12  and  _13
REMARK    7  A    between atoms: _12  and  _15
REMARK    8  A    between atoms: _15  and  _16
REMARK    9  A    between atoms: _18  and  _20
REMARK   10  A    between atoms: _20  and  _21
REMARK   11  A    between atoms: _20  and  _23
REMARK   12  A    between atoms: _23  and  _24
REMARK   13  A    between atoms: _30  and  _32
REMARK   14  A    between atoms: _32  and  _33
REMARK   15  A    between atoms: _32  and  _35
REMARK   16  A    between atoms: _35  and  _36
REMARK   17  A    between atoms: _41  and  _42
REMARK   18  A    between atoms: _44  and  _46
REMARK   19  A    between atoms: _46  and  _47
REMARK   20  A    between atoms: _46  and  _49
REMARK   21  A    between atoms: _49  and  _50
REMARK   22  A    between atoms: _50  and  _51
REMARK   23  A    between atoms: _53  and  _55
REMARK   24  A    between atoms: _55  and  _56
REMARK   25  A    between atoms: _55  and  _58
REMARK   26  A    between atoms: _58  and  _59
REMARK   27  A    between atoms: _59  and  _60
REMARK   28  A    between atoms: _60  and  _61
REMARK   29  A    between atoms: _61  and  _62
REMARK   30  A    between atoms: _66  and  _68
REMARK   31  A    between atoms: _68  and  _69
REMARK   32  A    between atoms: _68  and  _71
REMARK   33  A    between atoms: _74  and  _76
REMARK   34  A    between atoms: _76  and  _77
REMARK   35  A    between atoms: _79  and  _81
REMARK   36  A    between atoms: _81  and  _82
REMARK   37  A    between atoms: _81  and  _84
REMARK   38  A    between atoms: _87  and  _89
REMARK   39  A    between atoms: _89  and  _90
REMARK   40  A    between atoms: _92  and  _94
REMARK   41  A    between atoms: _94  and  _95
REMARK   42  A    between atoms: _94  and  _97
REMARK   43  A    between atoms: _97  and  _98
REMARK   44  A    between atoms: _101  and  _103
REMARK   45  A    between atoms: _103  and  _104
REMARK   46  A    between atoms: _103  and  _106
REMARK   47  A    between atoms: _106  and  _107
REMARK   48  A    between atoms: _107  and  _108
REMARK   49  A    between atoms: _108  and  _109
REMARK   50  A    between atoms: _118  and  _120
REMARK   51  A    between atoms: _120  and  _121
REMARK   52  A    between atoms: _120  and  _123
REMARK   53  A    between atoms: _126  and  _128
REMARK   54  A    between atoms: _128  and  _129
REMARK   55  A    between atoms: _132  and  _134
REMARK   56  A    between atoms: _134  and  _135
REMARK   57  A    between atoms: _137  and  _139
REMARK   58  A    between atoms: _139  and  _140
REMARK   59  A    between atoms: _139  and  _142
REMARK   60  A    between atoms: _142  and  _143
REMARK   61  A    between atoms: _143  and  _144
REMARK   62  A    between atoms: _146  and  _148
REMARK   63  A    between atoms: _148  and  _149
REMARK   64  A    between atoms: _152  and  _154
REMARK   65  A    between atoms: _154  and  _155
REMARK   66  A    between atoms: _154  and  _157
REMARK   67  A    between atoms: _157  and  _158
REMARK   68  A    between atoms: _158  and  _159
REMARK   69  A    between atoms: _159  and  _160
REMARK   70  A    between atoms: _160  and  _161
REMARK   71  A    between atoms: _166  and  _167
REMARK   72  A    between atoms: _172  and  _174
REMARK   73  A    between atoms: _174  and  _175
REMARK   74  A    between atoms: _174  and  _177
REMARK   75  A    between atoms: _177  and  _178
REMARK   76  A    between atoms: _183  and  _185
REMARK   77  A    between atoms: _185  and  _186
REMARK   78  A    between atoms: _185  and  _188
REMARK   79  A    between atoms: _188  and  _189
REMARK   80  A    between atoms: _189  and  _190
REMARK   81  A    between atoms: _192  and  _194
REMARK   82  A    between atoms: _194  and  _195
REMARK   83  A    between atoms: _194  and  _197
REMARK   84  A    between atoms: _197  and  _198
REMARK   85  A    between atoms: _201  and  _203
REMARK   86  A    between atoms: _203  and  _204
REMARK   87  A    between atoms: _203  and  _206
REMARK   88  A    between atoms: _206  and  _207
REMARK   89  A    between atoms: _207  and  _208
REMARK   90  A    between atoms: _208  and  _209
REMARK   91  A    between atoms: _218  and  _220
REMARK   92  A    between atoms: _220  and  _221
REMARK   93  A    between atoms: _220  and  _223
REMARK   94  A    between atoms: _223  and  _224
REMARK   95  A    between atoms: _226  and  _228
REMARK   96  A    between atoms: _228  and  _229
REMARK   97  A    between atoms: _228  and  _231
REMARK   98  A    between atoms: _231  and  _232
REMARK   99  A    between atoms: _232  and  _233
REMARK  100  A    between atoms: _236  and  _238
REMARK  101  A    between atoms: _238  and  _239
REMARK  102  A    between atoms: _238  and  _241
REMARK  103  A    between atoms: _241  and  _242
REMARK  104  A    between atoms: _244  and  _246
REMARK  105  A    between atoms: _246  and  _247
REMARK  106  A    between atoms: _246  and  _249
REMARK  107  A    between atoms: _249  and  _250
REMARK  108  A    between atoms: _253  and  _255
REMARK  109  A    between atoms: _255  and  _256
REMARK  110  A    between atoms: _255  and  _258
REMARK  111  A    between atoms: _258  and  _259
REMARK  112  A    between atoms: _265  and  _267
REMARK  113  A    between atoms: _267  and  _268
REMARK  114  A    between atoms: _267  and  _270
REMARK  115  A    between atoms: _270  and  _271
REMARK  116  A    between atoms: _271  and  _272
REMARK  117  A    between atoms: _272  and  _273
REMARK  118  A    between atoms: _273  and  _274
REMARK  119  A    between atoms: _278  and  _280
REMARK  120  A    between atoms: _280  and  _281
REMARK  121  A    between atoms: _280  and  _283
REMARK  122  A    between atoms: _283  and  _284
REMARK  123  A    between atoms: _289  and  _291
REMARK  124  A    between atoms: _291  and  _292
REMARK  125  A    between atoms: _291  and  _294
REMARK  126  A    between atoms: _294  and  _295
REMARK  127  A    between atoms: _298  and  _300
REMARK  128  A    between atoms: _300  and  _301
REMARK  129  A    between atoms: _300  and  _303
REMARK  130  A    between atoms: _303  and  _304
REMARK  131  A    between atoms: _304  and  _305
REMARK  132  A    between atoms: _308  and  _310
REMARK  133  A    between atoms: _310  and  _311
REMARK  134  A    between atoms: _310  and  _313
REMARK  135  A    between atoms: _313  and  _314
REMARK  136  A    between atoms: _317  and  _319
REMARK  137  A    between atoms: _319  and  _320
REMARK  138  A    between atoms: _319  and  _322
REMARK  139  A    between atoms: _322  and  _323
REMARK  140  A    between atoms: _323  and  _324
REMARK  141  A    between atoms: _327  and  _329
REMARK  142  A    between atoms: _329  and  _330
REMARK  143  A    between atoms: _329  and  _332
REMARK  144  A    between atoms: _332  and  _333
REMARK  145  A    between atoms: _336  and  _338
REMARK  146  A    between atoms: _338  and  _339
REMARK  147  A    between atoms: _338  and  _341
REMARK  148  A    between atoms: _341  and  _342
REMARK  149  A    between atoms: _345  and  _347
REMARK  150  A    between atoms: _347  and  _348
REMARK  151  A    between atoms: _351  and  _353
REMARK  152  A    between atoms: _353  and  _354
REMARK  153  A    between atoms: _353  and  _356
REMARK  154  A    between atoms: _356  and  _357
REMARK  155  A    between atoms: _360  and  _362
REMARK  156  A    between atoms: _362  and  _363
REMARK  157  A    between atoms: _362  and  _365
REMARK  158  A    between atoms: _365  and  _366
REMARK  159  A    between atoms: _369  and  _371
REMARK  160  A    between atoms: _371  and  _372
REMARK  161  A    between atoms: _371  and  _374
REMARK  162  A    between atoms: _374  and  _375
REMARK  163  A    between atoms: _375  and  _376
REMARK  164  A    between atoms: _376  and  _377
REMARK  165  A    between atoms: _386  and  _388
REMARK  166  A    between atoms: _388  and  _389
REMARK  167  A    between atoms: _388  and  _391
REMARK  168  A    between atoms: _391  and  _392
REMARK  169  A    between atoms: _392  and  _393
REMARK  170  A    between atoms: _398  and  _400
REMARK  171  A    between atoms: _400  and  _401
REMARK  172  A    between atoms: _400  and  _403
REMARK  173  A    between atoms: _403  and  _404
REMARK  174  A    between atoms: _404  and  _405
REMARK  175  A    between atoms: _410  and  _412
REMARK  176  A    between atoms: _412  and  _413
REMARK  177  A    between atoms: _412  and  _415
REMARK  178  A    between atoms: _415  and  _416
REMARK  179  A    between atoms: _426  and  _428
REMARK  180  A    between atoms: _428  and  _429
REMARK  181  A    between atoms: _428  and  _431
REMARK  182  A    between atoms: _431  and  _432
REMARK  183  A    between atoms: _435  and  _437
REMARK  184  A    between atoms: _437  and  _438
REMARK  185  A    between atoms: _437  and  _440
REMARK  186  A    between atoms: _440  and  _441
REMARK  187  A    between atoms: _444  and  _446
REMARK  188  A    between atoms: _446  and  _447
REMARK  189  A    between atoms: _446  and  _449
REMARK  190  A    between atoms: _449  and  _450
REMARK  191  A    between atoms: _453  and  _455
REMARK  192  A    between atoms: _455  and  _456
REMARK  193  A    between atoms: _455  and  _458
REMARK  194  A    between atoms: _458  and  _459
REMARK  195  A    between atoms: _459  and  _460
REMARK  196  A    between atoms: _460  and  _461
REMARK  197  A    between atoms: _461  and  _462
REMARK  198  A    between atoms: _466  and  _468
REMARK  199  A    between atoms: _468  and  _469
REMARK  200  A    between atoms: _468  and  _471
REMARK  201  A    between atoms: _471  and  _472
REMARK  202  A    between atoms: _472  and  _473
REMARK  203  A    between atoms: _473  and  _474
REMARK  204  A    between atoms: _483  and  _485
REMARK  205  A    between atoms: _485  and  _486
REMARK  206  A    between atoms: _485  and  _488
REMARK  207  A    between atoms: _491  and  _493
REMARK  208  A    between atoms: _493  and  _494
REMARK  209  A    between atoms: _493  and  _496
REMARK  210  A    between atoms: _496  and  _497
REMARK  211  A    between atoms: _497  and  _498
REMARK  212  A    between atoms: _501  and  _503
REMARK  213  A    between atoms: _503  and  _504
REMARK  214  A    between atoms: _503  and  _506
REMARK  215  A    between atoms: _508  and  _510
REMARK  216  A    between atoms: _510  and  _511
REMARK  217  A    between atoms: _510  and  _513
REMARK  218  A    between atoms: _516  and  _518
REMARK  219  A    between atoms: _518  and  _519
REMARK  220  A    between atoms: _518  and  _521
REMARK  221  A    between atoms: _521  and  _522
REMARK  222  A    between atoms: _524  and  _526
REMARK  223  A    between atoms: _526  and  _527
REMARK  224  A    between atoms: _526  and  _529
REMARK  225  A    between atoms: _529  and  _530
REMARK  226  A    between atoms: _533  and  _535
REMARK  227  A    between atoms: _535  and  _536
REMARK  228  A    between atoms: _535  and  _538
REMARK  229  A    between atoms: _538  and  _539
REMARK  230  A    between atoms: _539  and  _540
REMARK  231  A    between atoms: _540  and  _541
REMARK  232  A    between atoms: _550  and  _552
REMARK  233  A    between atoms: _552  and  _553
REMARK  234  A    between atoms: _552  and  _555
REMARK  235  A    between atoms: _555  and  _556
REMARK  236  A    between atoms: _561  and  _562
REMARK  237  A    between atoms: _564  and  _566
REMARK  238  A    between atoms: _566  and  _567
REMARK  239  A    between atoms: _566  and  _569
REMARK  240  A    between atoms: _569  and  _570
REMARK  241  A    between atoms: _570  and  _571
REMARK                            x       y       z     vdW  Elec       q    Type
REMARK                         _______ _______ _______ _____ _____    ______ ____
ROOT
ATOM      1  CB  GLN A   1      -2.943 -11.365   9.869  0.00  0.00    +0.035 C 
ENDROOT
BRANCH   1   2
ATOM      2  CA  GLN A   1      -2.192 -10.773   8.680  0.00  0.00    +0.134 C 
BRANCH   2   3
ATOM      3  N   GLN A   1      -0.771 -10.718   8.975  0.00  0.00    -0.239 NA
ATOM      4  H   GLN A   1      -0.476 -10.310   9.885  0.00  0.00    +0.142 HD
ENDBRANCH   2   3
BRANCH   2   5
ATOM      5  C   GLN A   1      -2.740  -9.368   8.463  0.00  0.00    +0.224 C 
ATOM      6  O   GLN A   1      -2.622  -8.526   9.353  0.00  0.00    -0.287 OA
ENDBRANCH   2   5
ENDBRANCH   1   2
BRANCH   1   7
ATOM      7  CG  GLN A   1      -4.456 -11.293   9.718  0.00  0.00    +0.087 C 
BRANCH   7   8
ATOM      8  CD  GLN A   1      -5.191 -12.021  10.812  0.00  0.00    +0.219 C 
ATOM      9  OE1 GLN A   1      -4.648 -12.221  11.874  0.00  0.00    -0.275 OA
ATOM     10  NE2 GLN A   1      -6.442 -12.398  10.554  0.00  0.00    -0.329 N 
ATOM     11 HE21 GLN A   1      -6.998 -12.889  11.283  0.00  0.00    +0.145 HD
ATOM     12 HE22 GLN A   1      -6.863 -12.202   9.623  0.00  0.00    +0.145 HD
ENDBRANCH   7   8
ENDBRANCH   1   7
TORSDOF 5
REMARK  Name = ../refined-set-2016/2qm9/2qm9_pocket.pdb
REMARK  241 active torsions:
REMARK  status: ('A' for Active; 'I' for Inactive)
REMARK    1  A    between atoms: _1  and  _3
REMARK    2  A    between atoms: _3  and  _4
REMARK    3  A    between atoms: _3  and  _6
REMARK    4  A    between atoms: _6  and  _7
REMARK    5  A    between atoms: _10  and  _12
REMARK    6  A    between atoms: _12  and  _13
REMARK    7  A    between atoms: _12  and  _15
REMARK    8  A    between atoms: _15  and  _16
REMARK    9  A    between atoms: _18  and  _20
REMARK   10  A    between atoms: _20  and  _21
REMARK   11  A    between atoms: _20  and  _23
REMARK   12  A    between atoms: _23  and  _24
REMARK   13  A    between atoms: _30  and  _32
REMARK   14  A    between atoms: _32  and  _33
REMARK   15  A    between atoms: _32  and  _35
REMARK   16  A    between atoms: _35  and  _36
REMARK   17  A    between atoms: _41  and  _42
REMARK   18  A    between atoms: _44  and  _46
REMARK   19  A    between atoms: _46  and  _47
REMARK   20  A    between atoms: _46  and  _49
REMARK   21  A    between atoms: _49  and  _50
REMARK   22  A    between atoms: _50  and  _51
REMARK   23  A    between atoms: _53  and  _55
REMARK   24  A    between atoms: _55  and  _56
REMARK   25  A    between atoms: _55  and  _58
REMARK   26  A    between atoms: _58  and  _59
REMARK   27  A    between atoms: _59  and  _60
REMARK   28  A    between atoms: _60  and  _61
REMARK   29  A    between atoms: _61  and  _62
REMARK   30  A    between atoms: _66  and  _68
REMARK   31  A    between atoms: _68  and  _69
REMARK   32  A    between atoms: _68  and  _71
REMARK   33  A    between atoms: _74  and  _76
REMARK   34  A    between atoms: _76  and  _77
REMARK   35  A    between atoms: _79  and  _81
REMARK   36  A    between atoms: _81  and  _82
REMARK   37  A    between atoms: _81  and  _84
REMARK   38  A    between atoms: _87  and  _89
REMARK   39  A    between atoms: _89  and  _90
REMARK   40  A    between atoms: _92  and  _94
REMARK   41  A    between atoms: _94  and  _95
REMARK   42  A    between atoms: _94  and  _97
REMARK   43  A    between atoms: _97  and  _98
REMARK   44  A    between atoms: _101  and  _103
REMARK   45  A    between atoms: _103  and  _104
REMARK   46  A    between atoms: _103  and  _106
REMARK   47  A    between atoms: _106  and  _107
REMARK   48  A    between atoms: _107  and  _108
REMARK   49  A    between atoms: _108  and  _109
REMARK   50  A    between atoms: _118  and  _120
REMARK   51  A    between atoms: _120  and  _121
REMARK   52  A    between atoms: _120  and  _123
REMARK   53  A    between atoms: _126  and  _128
REMARK   54  A    between atoms: _128  and  _129
REMARK   55  A    between atoms: _132  and  _134
REMARK   56  A    between atoms: _134  and  _135
REMARK   57  A    between atoms: _137  and  _139
REMARK   58  A    between atoms: _139  and  _140
REMARK   59  A    between atoms: _139  and  _142
REMARK   60  A    between atoms: _142  and  _143
REMARK   61  A    between atoms: _143  and  _144
REMARK   62  A    between atoms: _146  and  _148
REMARK   63  A    between atoms: _148  and  _149
REMARK   64  A    between atoms: _152  and  _154
REMARK   65  A    between atoms: _154  and  _155
REMARK   66  A    between atoms: _154  and  _157
REMARK   67  A    between atoms: _157  and  _158
REMARK   68  A    between atoms: _158  and  _159
REMARK   69  A    between atoms: _159  and  _160
REMARK   70  A    between atoms: _160  and  _161
REMARK   71  A    between atoms: _166  and  _167
REMARK   72  A    between atoms: _172  and  _174
REMARK   73  A    between atoms: _174  and  _175
REMARK   74  A    between atoms: _174  and  _177
REMARK   75  A    between atoms: _177  and  _178
REMARK   76  A    between atoms: _183  and  _185
REMARK   77  A    between atoms: _185  and  _186
REMARK   78  A    between atoms: _185  and  _188
REMARK   79  A    between atoms: _188  and  _189
REMARK   80  A    between atoms: _189  and  _190
REMARK   81  A    between atoms: _192  and  _194
REMARK   82  A    between atoms: _194  and  _195
REMARK   83  A    between atoms: _194  and  _197
REMARK   84  A    between atoms: _197  and  _198
REMARK   85  A    between atoms: _201  and  _203
REMARK   86  A    between atoms: _203  and  _204
REMARK   87  A    between atoms: _203  and  _206
REMARK   88  A    between atoms: _206  and  _207
REMARK   89  A    between atoms: _207  and  _208
REMARK   90  A    between atoms: _208  and  _209
REMARK   91  A    between atoms: _218  and  _220
REMARK   92  A    between atoms: _220  and  _221
REMARK   93  A    between atoms: _220  and  _223
REMARK   94  A    between atoms: _223  and  _224
REMARK   95  A    between atoms: _226  and  _228
REMARK   96  A    between atoms: _228  and  _229
REMARK   97  A    between atoms: _228  and  _231
REMARK   98  A    between atoms: _231  and  _232
REMARK   99  A    between atoms: _232  and  _233
REMARK  100  A    between atoms: _236  and  _238
REMARK  101  A    between atoms: _238  and  _239
REMARK  102  A    between atoms: _238  and  _241
REMARK  103  A    between atoms: _241  and  _242
REMARK  104  A    between atoms: _244  and  _246
REMARK  105  A    between atoms: _246  and  _247
REMARK  106  A    between atoms: _246  and  _249
REMARK  107  A    between atoms: _249  and  _250
REMARK  108  A    between atoms: _253  and  _255
REMARK  109  A    between atoms: _255  and  _256
REMARK  110  A    between atoms: _255  and  _258
REMARK  111  A    between atoms: _258  and  _259
REMARK  112  A    between atoms: _265  and  _267
REMARK  113  A    between atoms: _267  and  _268
REMARK  114  A    between atoms: _267  and  _270
REMARK  115  A    between atoms: _270  and  _271
REMARK  116  A    between atoms: _271  and  _272
REMARK  117  A    between atoms: _272  and  _273
REMARK  118  A    between atoms: _273  and  _274
REMARK  119  A    between atoms: _278  and  _280
REMARK  120  A    between atoms: _280  and  _281
REMARK  121  A    between atoms: _280  and  _283
REMARK  122  A    between atoms: _283  and  _284
REMARK  123  A    between atoms: _289  and  _291
REMARK  124  A    between atoms: _291  and  _292
REMARK  125  A    between atoms: _291  and  _294
REMARK  126  A    between atoms: _294  and  _295
REMARK  127  A    between atoms: _298  and  _300
REMARK  128  A    between atoms: _300  and  _301
REMARK  129  A    between atoms: _300  and  _303
REMARK  130  A    between atoms: _303  and  _304
REMARK  131  A    between atoms: _304  and  _305
REMARK  132  A    between atoms: _308  and  _310
REMARK  133  A    between atoms: _310  and  _311
REMARK  134  A    between atoms: _310  and  _313
REMARK  135  A    between atoms: _313  and  _314
REMARK  136  A    between atoms: _317  and  _319
REMARK  137  A    between atoms: _319  and  _320
REMARK  138  A    between atoms: _319  and  _322
REMARK  139  A    between atoms: _322  and  _323
REMARK  140  A    between atoms: _323  and  _324
REMARK  141  A    between atoms: _327  and  _329
REMARK  142  A    between atoms: _329  and  _330
REMARK  143  A    between atoms: _329  and  _332
REMARK  144  A    between atoms: _332  and  _333
REMARK  145  A    between atoms: _336  and  _338
REMARK  146  A    between atoms: _338  and  _339
REMARK  147  A    between atoms: _338  and  _341
REMARK  148  A    between atoms: _341  and  _342
REMARK  149  A    between atoms: _345  and  _347
REMARK  150  A    between atoms: _347  and  _348
REMARK  151  A    between atoms: _351  and  _353
REMARK  152  A    between atoms: _353  and  _354
REMARK  153  A    between atoms: _353  and  _356
REMARK  154  A    between atoms: _356  and  _357
REMARK  155  A    between atoms: _360  and  _362
REMARK  156  A    between atoms: _362  and  _363
REMARK  157  A    between atoms: _362  and  _365
REMARK  158  A    between atoms: _365  and  _366
REMARK  159  A    between atoms: _369  and  _371
REMARK  160  A    between atoms: _371  and  _372
REMARK  161  A    between atoms: _371  and  _374
REMARK  162  A    between atoms: _374  and  _375
REMARK  163  A    between atoms: _375  and  _376
REMARK  164  A    between atoms: _376  and  _377
REMARK  165  A    between atoms: _386  and  _388
REMARK  166  A    between atoms: _388  and  _389
REMARK  167  A    between atoms: _388  and  _391
REMARK  168  A    between atoms: _391  and  _392
REMARK  169  A    between atoms: _392  and  _393
REMARK  170  A    between atoms: _398  and  _400
REMARK  171  A    between atoms: _400  and  _401
REMARK  172  A    between atoms: _400  and  _403
REMARK  173  A    between atoms: _403  and  _404
REMARK  174  A    between atoms: _404  and  _405
REMARK  175  A    between atoms: _410  and  _412
REMARK  176  A    between atoms: _412  and  _413
REMARK  177  A    between atoms: _412  and  _415
REMARK  178  A    between atoms: _415  and  _416
REMARK  179  A    between atoms: _426  and  _428
REMARK  180  A    between atoms: _428  and  _429
REMARK  181  A    between atoms: _428  and  _431
REMARK  182  A    between atoms: _431  and  _432
REMARK  183  A    between atoms: _435  and  _437
REMARK  184  A    between atoms: _437  and  _438
REMARK  185  A    between atoms: _437  and  _440
REMARK  186  A    between atoms: _440  and  _441
REMARK  187  A    between atoms: _444  and  _446
REMARK  188  A    between atoms: _446  and  _447
REMARK  189  A    between atoms: _446  and  _449
REMARK  190  A    between atoms: _449  and  _450
REMARK  191  A    between atoms: _453  and  _455
REMARK  192  A    between atoms: _455  and  _456
REMARK  193  A    between atoms: _455  and  _458
REMARK  194  A    between atoms: _458  and  _459
REMARK  195  A    between atoms: _459  and  _460
REMARK  196  A    between atoms: _460  and  _461
REMARK  197  A    between atoms: _461  and  _462
REMARK  198  A    between atoms: _466  and  _468
REMARK  199  A    between atoms: _468  and  _469
REMARK  200  A    between atoms: _468  and  _471
REMARK  201  A    between atoms: _471  and  _472
REMARK  202  A    between atoms: _472  and  _473
REMARK  203  A    between atoms: _473  and  _474
REMARK  204  A    between atoms: _483  and  _485
REMARK  205  A    between atoms: _485  and  _486
REMARK  206  A    between atoms: _485  and  _488
REMARK  207  A    between atoms: _491  and  _493
REMARK  208  A    between atoms: _493  and  _494
REMARK  209  A    between atoms: _493  and  _496
REMARK  210  A    between atoms: _496  and  _497
REMARK  211  A    between atoms: _497  and  _498
REMARK  212  A    between atoms: _501  and  _503
REMARK  213  A    between atoms: _503  and  _504
REMARK  214  A    between atoms: _503  and  _506
REMARK  215  A    between atoms: _508  and  _510
REMARK  216  A    between atoms: _510  and  _511
REMARK  217  A    between atoms: _510  and  _513
REMARK  218  A    between atoms: _516  and  _518
REMARK  219  A    between atoms: _518  and  _519
REMARK  220  A    between atoms: _518  and  _521
REMARK  221  A    between atoms: _521  and  _522
REMARK  222  A    between atoms: _524  and  _526
REMARK  223  A    between atoms: _526  and  _527
REMARK  224  A    between atoms: _526  and  _529
REMARK  225  A    between atoms: _529  and  _530
REMARK  226  A    between atoms: _533  and  _535
REMARK  227  A    between atoms: _535  and  _536
REMARK  228  A    between atoms: _535  and  _538
REMARK  229  A    between atoms: _538  and  _539
REMARK  230  A    between atoms: _539  and  _540
REMARK  231  A    between atoms: _540  and  _541
REMARK  232  A    between atoms: _550  and  _552
REMARK  233  A    between atoms: _552  and  _553
REMARK  234  A    between atoms: _552  and  _555
REMARK  235  A    between atoms: _555  and  _556
REMARK  236  A    between atoms: _561  and  _562
REMARK  237  A    between atoms: _564  and  _566
REMARK  238  A    between atoms: _566  and  _567
REMARK  239  A    between atoms: _566  and  _569
REMARK  240  A    between atoms: _569  and  _570
REMARK  241  A    between atoms: _570  and  _571
REMARK                            x       y       z     vdW  Elec       q    Type
REMARK                         _______ _______ _______ _____ _____    ______ ____
ROOT
ATOM      1  CB  GLN A   1      -8.368  -7.673   9.399  0.00  0.00    +0.035 C 
ENDROOT
BRANCH   1   2
ATOM      2  CA  GLN A   1      -7.822  -7.470   7.999  0.00  0.00    +0.134 C 
BRANCH   2   3
ATOM      3  N   GLN A   1      -6.362  -7.376   7.988  0.00  0.00    -0.239 NA
ATOM      4  H   GLN A   1      -5.888  -6.700   8.620  0.00  0.00    +0.142 HD
ENDBRANCH   2   3
BRANCH   2   5
ATOM      5  C   GLN A   1      -8.454  -6.218   7.421  0.00  0.00    +0.224 C 
ATOM      6  O   GLN A   1      -8.124  -5.120   7.822  0.00  0.00    -0.287 OA
ENDBRANCH   2   5
ENDBRANCH   1   2
BRANCH   1   7
ATOM      7  CG  GLN A   1      -7.776  -8.789  10.160  0.00  0.00    +0.087 C 
BRANCH   7   8
ATOM      8  CD  GLN A   1      -8.293  -8.799  11.576  0.00  0.00    +0.219 C 
ATOM      9  OE1 GLN A   1      -8.524  -7.744  12.149  0.00  0.00    -0.275 OA
ATOM     10  NE2 GLN A   1      -8.501  -9.980  12.133  0.00  0.00    -0.329 N 
ATOM     11 HE21 GLN A   1      -8.877 -10.040  13.101  0.00  0.00    +0.145 HD
ATOM     12 HE22 GLN A   1      -8.288 -10.849  11.603  0.00  0.00    +0.145 HD
ENDBRANCH   7   8
ENDBRANCH   1   7
TORSDOF 5
REMARK  Name = ../refined-set-2016/2qm9/2qm9_pocket.pdb
REMARK  241 active torsions:
REMARK  status: ('A' for Active; 'I' for Inactive)
REMARK    1  A    between atoms: _1  and  _3
REMARK    2  A    between atoms: _3  and  _4
REMARK    3  A    between atoms: _3  and  _6
REMARK    4  A    between atoms: _6  and  _7
REMARK    5  A    between atoms: _10  and  _12
REMARK    6  A    between atoms: _12  and  _13
REMARK    7  A    between atoms: _12  and  _15
REMARK    8  A    between atoms: _15  and  _16
REMARK    9  A    between atoms: _18  and  _20
REMARK   10  A    between atoms: _20  and  _21
REMARK   11  A    between atoms: _20  and  _23
REMARK   12  A    between atoms: _23  and  _24
REMARK   13  A    between atoms: _30  and  _32
REMARK   14  A    between atoms: _32  and  _33
REMARK   15  A    between atoms: _32  and  _35
REMARK   16  A    between atoms: _35  and  _36
REMARK   17  A    between atoms: _41  and  _42
REMARK   18  A    between atoms: _44  and  _46
REMARK   19  A    between atoms: _46  and  _47
REMARK   20  A    between atoms: _46  and  _49
REMARK   21  A    between atoms: _49  and  _50
REMARK   22  A    between atoms: _50  and  _51
REMARK   23  A    between atoms: _53  and  _55
REMARK   24  A    between atoms: _55  and  _56
REMARK   25  A    between atoms: _55  and  _58
REMARK   26  A    between atoms: _58  and  _59
REMARK   27  A    between atoms: _59  and  _60
REMARK   28  A    between atoms: _60  and  _61
REMARK   29  A    between atoms: _61  and  _62
REMARK   30  A    between atoms: _66  and  _68
REMARK   31  A    between atoms: _68  and  _69
REMARK   32  A    between atoms: _68  and  _71
REMARK   33  A    between atoms: _74  and  _76
REMARK   34  A    between atoms: _76  and  _77
REMARK   35  A    between atoms: _79  and  _81
REMARK   36  A    between atoms: _81  and  _82
REMARK   37  A    between atoms: _81  and  _84
REMARK   38  A    between atoms: _87  and  _89
REMARK   39  A    between atoms: _89  and  _90
REMARK   40  A    between atoms: _92  and  _94
REMARK   41  A    between atoms: _94  and  _95
REMARK   42  A    between atoms: _94  and  _97
REMARK   43  A    between atoms: _97  and  _98
REMARK   44  A    between atoms: _101  and  _103
REMARK   45  A    between atoms: _103  and  _104
REMARK   46  A    between atoms: _103  and  _106
REMARK   47  A    between atoms: _106  and  _107
REMARK   48  A    between atoms: _107  and  _108
REMARK   49  A    between atoms: _108  and  _109
REMARK   50  A    between atoms: _118  and  _120
REMARK   51  A    between atoms: _120  and  _121
REMARK   52  A    between atoms: _120  and  _123
REMARK   53  A    between atoms: _126  and  _128
REMARK   54  A    between atoms: _128  and  _129
REMARK   55  A    between atoms: _132  and  _134
REMARK   56  A    between atoms: _134  and  _135
REMARK   57  A    between atoms: _137  and  _139
REMARK   58  A    between atoms: _139  and  _140
REMARK   59  A    between atoms: _139  and  _142
REMARK   60  A    between atoms: _142  and  _143
REMARK   61  A    between atoms: _143  and  _144
REMARK   62  A    between atoms: _146  and  _148
REMARK   63  A    between atoms: _148  and  _149
REMARK   64  A    between atoms: _152  and  _154
REMARK   65  A    between atoms: _154  and  _155
REMARK   66  A    between atoms: _154  and  _157
REMARK   67  A    between atoms: _157  and  _158
REMARK   68  A    between atoms: _158  and  _159
REMARK   69  A    between atoms: _159  and  _160
REMARK   70  A    between atoms: _160  and  _161
REMARK   71  A    between atoms: _166  and  _167
REMARK   72  A    between atoms: _172  and  _174
REMARK   73  A    between atoms: _174  and  _175
REMARK   74  A    between atoms: _174  and  _177
REMARK   75  A    between atoms: _177  and  _178
REMARK   76  A    between atoms: _183  and  _185
REMARK   77  A    between atoms: _185  and  _186
REMARK   78  A    between atoms: _185  and  _188
REMARK   79  A    between atoms: _188  and  _189
REMARK   80  A    between atoms: _189  and  _190
REMARK   81  A    between atoms: _192  and  _194
REMARK   82  A    between atoms: _194  and  _195
REMARK   83  A    between atoms: _194  and  _197
REMARK   84  A    between atoms: _197  and  _198
REMARK   85  A    between atoms: _201  and  _203
REMARK   86  A    between atoms: _203  and  _204
REMARK   87  A    between atoms: _203  and  _206
REMARK   88  A    between atoms: _206  and  _207
REMARK   89  A    between atoms: _207  and  _208
REMARK   90  A    between atoms: _208  and  _209
REMARK   91  A    between atoms: _218  and  _220
REMARK   92  A    between atoms: _220  and  _221
REMARK   93  A    between atoms: _220  and  _223
REMARK   94  A    between atoms: _223  and  _224
REMARK   95  A    between atoms: _226  and  _228
REMARK   96  A    between atoms: _228  and  _229
REMARK   97  A    between atoms: _228  and  _231
REMARK   98  A    between atoms: _231  and  _232
REMARK   99  A    between atoms: _232  and  _233
REMARK  100  A    between atoms: _236  and  _238
REMARK  101  A    between atoms: _238  and  _239
REMARK  102  A    between atoms: _238  and  _241
REMARK  103  A    between atoms: _241  and  _242
REMARK  104  A    between atoms: _244  and  _246
REMARK  105  A    between atoms: _246  and  _247
REMARK  106  A    between atoms: _246  and  _249
REMARK  107  A    between atoms: _249  and  _250
REMARK  108  A    between atoms: _253  and  _255
REMARK  109  A    between atoms: _255  and  _256
REMARK  110  A    between atoms: _255  and  _258
REMARK  111  A    between atoms: _258  and  _259
REMARK  112  A    between atoms: _265  and  _267
REMARK  113  A    between atoms: _267  and  _268
REMARK  114  A    between atoms: _267  and  _270
REMARK  115  A    between atoms: _270  and  _271
REMARK  116  A    between atoms: _271  and  _272
REMARK  117  A    between atoms: _272  and  _273
REMARK  118  A    between atoms: _273  and  _274
REMARK  119  A    between atoms: _278  and  _280
REMARK  120  A    between atoms: _280  and  _281
REMARK  121  A    between atoms: _280  and  _283
REMARK  122  A    between atoms: _283  and  _284
REMARK  123  A    between atoms: _289  and  _291
REMARK  124  A    between atoms: _291  and  _292
REMARK  125  A    between atoms: _291  and  _294
REMARK  126  A    between atoms: _294  and  _295
REMARK  127  A    between atoms: _298  and  _300
REMARK  128  A    between atoms: _300  and  _301
REMARK  129  A    between atoms: _300  and  _303
REMARK  130  A    between atoms: _303  and  _304
REMARK  131  A    between atoms: _304  and  _305
REMARK  132  A    between atoms: _308  and  _310
REMARK  133  A    between atoms: _310  and  _311
REMARK  134  A    between atoms: _310  and  _313
REMARK  135  A    between atoms: _313  and  _314
REMARK  136  A    between atoms: _317  and  _319
REMARK  137  A    between atoms: _319  and  _320
REMARK  138  A    between atoms: _319  and  _322
REMARK  139  A    between atoms: _322  and  _323
REMARK  140  A    between atoms: _323  and  _324
REMARK  141  A    between atoms: _327  and  _329
REMARK  142  A    between atoms: _329  and  _330
REMARK  143  A    between atoms: _329  and  _332
REMARK  144  A    between atoms: _332  and  _333
REMARK  145  A    between atoms: _336  and  _338
REMARK  146  A    between atoms: _338  and  _339
REMARK  147  A    between atoms: _338  and  _341
REMARK  148  A    between atoms: _341  and  _342
REMARK  149  A    between atoms: _345  and  _347
REMARK  150  A    between atoms: _347  and  _348
REMARK  151  A    between atoms: _351  and  _353
REMARK  152  A    between atoms: _353  and  _354
REMARK  153  A    between atoms: _353  and  _356
REMARK  154  A    between atoms: _356  and  _357
REMARK  155  A    between atoms: _360  and  _362
REMARK  156  A    between atoms: _362  and  _363
REMARK  157  A    between atoms: _362  and  _365
REMARK  158  A    between atoms: _365  and  _366
REMARK  159  A    between atoms: _369  and  _371
REMARK  160  A    between atoms: _371  and  _372
REMARK  161  A    between atoms: _371  and  _374
REMARK  162  A    between atoms: _374  and  _375
REMARK  163  A    between atoms: _375  and  _376
REMARK  164  A    between atoms: _376  and  _377
REMARK  165  A    between atoms: _386  and  _388
REMARK  166  A    between atoms: _388  and  _389
REMARK  167  A    between atoms: _388  and  _391
REMARK  168  A    between atoms: _391  and  _392
REMARK  169  A    between atoms: _392  and  _393
REMARK  170  A    between atoms: _398  and  _400
REMARK  171  A    between atoms: _400  and  _401
REMARK  172  A    between atoms: _400  and  _403
REMARK  173  A    between atoms: _403  and  _404
REMARK  174  A    between atoms: _404  and  _405
REMARK  175  A    between atoms: _410  and  _412
REMARK  176  A    between atoms: _412  and  _413
REMARK  177  A    between atoms: _412  and  _415
REMARK  178  A    between atoms: _415  and  _416
REMARK  179  A    between atoms: _426  and  _428
REMARK  180  A    between atoms: _428  and  _429
REMARK  181  A    between atoms: _428  and  _431
REMARK  182  A    between atoms: _431  and  _432
REMARK  183  A    between atoms: _435  and  _437
REMARK  184  A    between atoms: _437  and  _438
REMARK  185  A    between atoms: _437  and  _440
REMARK  186  A    between atoms: _440  and  _441
REMARK  187  A    between atoms: _444  and  _446
REMARK  188  A    between atoms: _446  and  _447
REMARK  189  A    between atoms: _446  and  _449
REMARK  190  A    between atoms: _449  and  _450
REMARK  191  A    between atoms: _453  and  _455
REMARK  192  A    between atoms: _455  and  _456
REMARK  193  A    between atoms: _455  and  _458
REMARK  194  A    between atoms: _458  and  _459
REMARK  195  A    between atoms: _459  and  _460
REMARK  196  A    between atoms: _460  and  _461
REMARK  197  A    between atoms: _461  and  _462
REMARK  198  A    between atoms: _466  and  _468
REMARK  199  A    between atoms: _468  and  _469
REMARK  200  A    between atoms: _468  and  _471
REMARK  201  A    between atoms: _471  and  _472
REMARK  202  A    between atoms: _472  and  _473
REMARK  203  A    between atoms: _473  and  _474
REMARK  204  A    between atoms: _483  and  _485
REMARK  205  A    between atoms: _485  and  _486
REMARK  206  A    between atoms: _485  and  _488
REMARK  207  A    between atoms: _491  and  _493
REMARK  208  A    between atoms: _493  and  _494
REMARK  209  A    between atoms: _493  and  _496
REMARK  210  A    between atoms: _496  and  _497
REMARK  211  A    between atoms: _497  and  _498
REMARK  212  A    between atoms: _501  and  _503
REMARK  213  A    between atoms: _503  and  _504
REMARK  214  A    between atoms: _503  and  _506
REMARK  215  A    between atoms: _508  and  _510
REMARK  216  A    between atoms: _510  and  _511
REMARK  217  A    between atoms: _510  and  _513
REMARK  218  A    between atoms: _516  and  _518
REMARK  219  A    between atoms: _518  and  _519
REMARK  220  A    between atoms: _518  and  _521
REMARK  221  A    between atoms: _521  and  _522
REMARK  222  A    between atoms: _524  and  _526
REMARK  223  A    between atoms: _526  and  _527
REMARK  224  A    between atoms: _526  and  _529
REMARK  225  A    between atoms: _529  and  _530
REMARK  226  A    between atoms: _533  and  _535
REMARK  227  A    between atoms: _535  and  _536
REMARK  228  A    between atoms: _535  and  _538
REMARK  229  A    between atoms: _538  and  _539
REMARK  230  A    between atoms: _539  and  _540
REMARK  231  A    between atoms: _540  and  _541
REMARK  232  A    between atoms: _550  and  _552
REMARK  233  A    between atoms: _552  and  _553
REMARK  234  A    between atoms: _552  and  _555
REMARK  235  A    between atoms: _555  and  _556
REMARK  236  A    between atoms: _561  and  _562
REMARK  237  A    between atoms: _564  and  _566
REMARK  238  A    between atoms: _566  and  _567
REMARK  239  A    between atoms: _566  and  _569
REMARK  240  A    between atoms: _569  and  _570
REMARK  241  A    between atoms: _570  and  _571
REMARK                            x       y       z     vdW  Elec       q    Type
REMARK                         _______ _______ _______ _____ _____    ______ ____
ROOT
ATOM      1  CG  TRP A   1     -13.852  -4.064   9.115  0.00  0.00    -0.002 A 
ATOM      2  CD1 TRP A   1     -14.799  -3.390   9.833  0.00  0.00    +0.068 A 
ATOM      3  NE1 TRP A   1     -14.209  -2.688  10.858  0.00  0.00    -0.352 N 
ATOM      4  HE1 TRP A   1     -14.709  -2.097  11.553  0.00  0.00    +0.166 HD
ATOM      5  CE2 TRP A   1     -12.852  -2.894  10.815  0.00  0.00    +0.056 A 
ATOM      6  CZ2 TRP A   1     -11.837  -2.402  11.649  0.00  0.00    +0.017 A 
ATOM      7  CH2 TRP A   1     -10.555  -2.787  11.378  0.00  0.00    +0.001 A 
ATOM      8  CZ3 TRP A   1     -10.262  -3.637  10.313  0.00  0.00    +0.000 A 
ATOM      9  CE3 TRP A   1     -11.264  -4.124   9.484  0.00  0.00    +0.001 A 
ATOM     10  CD2 TRP A   1     -12.590  -3.749   9.729  0.00  0.00    +0.013 A 
ENDROOT
BRANCH   1  11
ATOM     11  CB  TRP A   1     -14.086  -4.930   7.895  0.00  0.00    +0.053 C 
BRANCH  11  12
ATOM     12  CA  TRP A   1     -13.658  -4.262   6.579  0.00  0.00    +0.137 C 
BRANCH  12  13
ATOM     13  N   TRP A   1     -12.201  -4.339   6.414  0.00  0.00    -0.239 NA
ATOM     14  H   TRP A   1     -11.643  -3.475   6.565  0.00  0.00    +0.142 HD
ENDBRANCH  12  13
BRANCH  12  15
ATOM     15  C   TRP A   1     -14.087  -2.787   6.560  0.00  0.00    +0.224 C 
ATOM     16  O   TRP A   1     -13.341  -1.940   7.029  0.00  0.00    -0.287 OA
ENDBRANCH  12  15
ENDBRANCH  11  12
ENDBRANCH   1  11
TORSDOF 4
REMARK  Name = ../refined-set-2016/2qm9/2qm9_pocket.pdb
REMARK  241 active torsions:
REMARK  status: ('A' for Active; 'I' for Inactive)
REMARK    1  A    between atoms: _1  and  _3
REMARK    2  A    between atoms: _3  and  _4
REMARK    3  A    between atoms: _3  and  _6
REMARK    4  A    between atoms: _6  and  _7
REMARK    5  A    between atoms: _10  and  _12
REMARK    6  A    between atoms: _12  and  _13
REMARK    7  A    between atoms: _12  and  _15
REMARK    8  A    between atoms: _15  and  _16
REMARK    9  A    between atoms: _18  and  _20
REMARK   10  A    between atoms: _20  and  _21
REMARK   11  A    between atoms: _20  and  _23
REMARK   12  A    between atoms: _23  and  _24
REMARK   13  A    between atoms: _30  and  _32
REMARK   14  A    between atoms: _32  and  _33
REMARK   15  A    between atoms: _32  and  _35
REMARK   16  A    between atoms: _35  and  _36
REMARK   17  A    between atoms: _41  and  _42
REMARK   18  A    between atoms: _44  and  _46
REMARK   19  A    between atoms: _46  and  _47
REMARK   20  A    between atoms: _46  and  _49
REMARK   21  A    between atoms: _49  and  _50
REMARK   22  A    between atoms: _50  and  _51
REMARK   23  A    between atoms: _53  and  _55
REMARK   24  A    between atoms: _55  and  _56
REMARK   25  A    between atoms: _55  and  _58
REMARK   26  A    between atoms: _58  and  _59
REMARK   27  A    between atoms: _59  and  _60
REMARK   28  A    between atoms: _60  and  _61
REMARK   29  A    between atoms: _61  and  _62
REMARK   30  A    between atoms: _66  and  _68
REMARK   31  A    between atoms: _68  and  _69
REMARK   32  A    between atoms: _68  and  _71
REMARK   33  A    between atoms: _74  and  _76
REMARK   34  A    between atoms: _76  and  _77
REMARK   35  A    between atoms: _79  and  _81
REMARK   36  A    between atoms: _81  and  _82
REMARK   37  A    between atoms: _81  and  _84
REMARK   38  A    between atoms: _87  and  _89
REMARK   39  A    between atoms: _89  and  _90
REMARK   40  A    between atoms: _92  and  _94
REMARK   41  A    between atoms: _94  and  _95
REMARK   42  A    between atoms: _94  and  _97
REMARK   43  A    between atoms: _97  and  _98
REMARK   44  A    between atoms: _101  and  _103
REMARK   45  A    between atoms: _103  and  _104
REMARK   46  A    between atoms: _103  and  _106
REMARK   47  A    between atoms: _106  and  _107
REMARK   48  A    between atoms: _107  and  _108
REMARK   49  A    between atoms: _108  and  _109
REMARK   50  A    between atoms: _118  and  _120
REMARK   51  A    between atoms: _120  and  _121
REMARK   52  A    between atoms: _120  and  _123
REMARK   53  A    between atoms: _126  and  _128
REMARK   54  A    between atoms: _128  and  _129
REMARK   55  A    between atoms: _132  and  _134
REMARK   56  A    between atoms: _134  and  _135
REMARK   57  A    between atoms: _137  and  _139
REMARK   58  A    between atoms: _139  and  _140
REMARK   59  A    between atoms: _139  and  _142
REMARK   60  A    between atoms: _142  and  _143
REMARK   61  A    between atoms: _143  and  _144
REMARK   62  A    between atoms: _146  and  _148
REMARK   63  A    between atoms: _148  and  _149
REMARK   64  A    between atoms: _152  and  _154
REMARK   65  A    between atoms: _154  and  _155
REMARK   66  A    between atoms: _154  and  _157
REMARK   67  A    between atoms: _157  and  _158
REMARK   68  A    between atoms: _158  and  _159
REMARK   69  A    between atoms: _159  and  _160
REMARK   70  A    between atoms: _160  and  _161
REMARK   71  A    between atoms: _166  and  _167
REMARK   72  A    between atoms: _172  and  _174
REMARK   73  A    between atoms: _174  and  _175
REMARK   74  A    between atoms: _174  and  _177
REMARK   75  A    between atoms: _177  and  _178
REMARK   76  A    between atoms: _183  and  _185
REMARK   77  A    between atoms: _185  and  _186
REMARK   78  A    between atoms: _185  and  _188
REMARK   79  A    between atoms: _188  and  _189
REMARK   80  A    between atoms: _189  and  _190
REMARK   81  A    between atoms: _192  and  _194
REMARK   82  A    between atoms: _194  and  _195
REMARK   83  A    between atoms: _194  and  _197
REMARK   84  A    between atoms: _197  and  _198
REMARK   85  A    between atoms: _201  and  _203
REMARK   86  A    between atoms: _203  and  _204
REMARK   87  A    between atoms: _203  and  _206
REMARK   88  A    between atoms: _206  and  _207
REMARK   89  A    between atoms: _207  and  _208
REMARK   90  A    between atoms: _208  and  _209
REMARK   91  A    between atoms: _218  and  _220
REMARK   92  A    between atoms: _220  and  _221
REMARK   93  A    between atoms: _220  and  _223
REMARK   94  A    between atoms: _223  and  _224
REMARK   95  A    between atoms: _226  and  _228
REMARK   96  A    between atoms: _228  and  _229
REMARK   97  A    between atoms: _228  and  _231
REMARK   98  A    between atoms: _231  and  _232
REMARK   99  A    between atoms: _232  and  _233
REMARK  100  A    between atoms: _236  and  _238
REMARK  101  A    between atoms: _238  and  _239
REMARK  102  A    between atoms: _238  and  _241
REMARK  103  A    between atoms: _241  and  _242
REMARK  104  A    between atoms: _244  and  _246
REMARK  105  A    between atoms: _246  and  _247
REMARK  106  A    between atoms: _246  and  _249
REMARK  107  A    between atoms: _249  and  _250
REMARK  108  A    between atoms: _253  and  _255
REMARK  109  A    between atoms: _255  and  _256
REMARK  110  A    between atoms: _255  and  _258
REMARK  111  A    between atoms: _258  and  _259
REMARK  112  A    between atoms: _265  and  _267
REMARK  113  A    between atoms: _267  and  _268
REMARK  114  A    between atoms: _267  and  _270
REMARK  115  A    between atoms: _270  and  _271
REMARK  116  A    between atoms: _271  and  _272
REMARK  117  A    between atoms: _272  and  _273
REMARK  118  A    between atoms: _273  and  _274
REMARK  119  A    between atoms: _278  and  _280
REMARK  120  A    between atoms: _280  and  _281
REMARK  121  A    between atoms: _280  and  _283
REMARK  122  A    between atoms: _283  and  _284
REMARK  123  A    between atoms: _289  and  _291
REMARK  124  A    between atoms: _291  and  _292
REMARK  125  A    between atoms: _291  and  _294
REMARK  126  A    between atoms: _294  and  _295
REMARK  127  A    between atoms: _298  and  _300
REMARK  128  A    between atoms: _300  and  _301
REMARK  129  A    between atoms: _300  and  _303
REMARK  130  A    between atoms: _303  and  _304
REMARK  131  A    between atoms: _304  and  _305
REMARK  132  A    between atoms: _308  and  _310
REMARK  133  A    between atoms: _310  and  _311
REMARK  134  A    between atoms: _310  and  _313
REMARK  135  A    between atoms: _313  and  _314
REMARK  136  A    between atoms: _317  and  _319
REMARK  137  A    between atoms: _319  and  _320
REMARK  138  A    between atoms: _319  and  _322
REMARK  139  A    between atoms: _322  and  _323
REMARK  140  A    between atoms: _323  and  _324
REMARK  141  A    between atoms: _327  and  _329
REMARK  142  A    between atoms: _329  and  _330
REMARK  143  A    between atoms: _329  and  _332
REMARK  144  A    between atoms: _332  and  _333
REMARK  145  A    between atoms: _336  and  _338
REMARK  146  A    between atoms: _338  and  _339
REMARK  147  A    between atoms: _338  and  _341
REMARK  148  A    between atoms: _341  and  _342
REMARK  149  A    between atoms: _345  and  _347
REMARK  150  A    between atoms: _347  and  _348
REMARK  151  A    between atoms: _351  and  _353
REMARK  152  A    between atoms: _353  and  _354
REMARK  153  A    between atoms: _353  and  _356
REMARK  154  A    between atoms: _356  and  _357
REMARK  155  A    between atoms: _360  and  _362
REMARK  156  A    between atoms: _362  and  _363
REMARK  157  A    between atoms: _362  and  _365
REMARK  158  A    between atoms: _365  and  _366
REMARK  159  A    between atoms: _369  and  _371
REMARK  160  A    between atoms: _371  and  _372
REMARK  161  A    between atoms: _371  and  _374
REMARK  162  A    between atoms: _374  and  _375
REMARK  163  A    between atoms: _375  and  _376
REMARK  164  A    between atoms: _376  and  _377
REMARK  165  A    between atoms: _386  and  _388
REMARK  166  A    between atoms: _388  and  _389
REMARK  167  A    between atoms: _388  and  _391
REMARK  168  A    between atoms: _391  and  _392
REMARK  169  A    between atoms: _392  and  _393
REMARK  170  A    between atoms: _398  and  _400
REMARK  171  A    between atoms: _400  and  _401
REMARK  172  A    between atoms: _400  and  _403
REMARK  173  A    between atoms: _403  and  _404
REMARK  174  A    between atoms: _404  and  _405
REMARK  175  A    between atoms: _410  and  _412
REMARK  176  A    between atoms: _412  and  _413
REMARK  177  A    between atoms: _412  and  _415
REMARK  178  A    between atoms: _415  and  _416
REMARK  179  A    between atoms: _426  and  _428
REMARK  180  A    between atoms: _428  and  _429
REMARK  181  A    between atoms: _428  and  _431
REMARK  182  A    between atoms: _431  and  _432
REMARK  183  A    between atoms: _435  and  _437
REMARK  184  A    between atoms: _437  and  _438
REMARK  185  A    between atoms: _437  and  _440
REMARK  186  A    between atoms: _440  and  _441
REMARK  187  A    between atoms: _444  and  _446
REMARK  188  A    between atoms: _446  and  _447
REMARK  189  A    between atoms: _446  and  _449
REMARK  190  A    between atoms: _449  and  _450
REMARK  191  A    between atoms: _453  and  _455
REMARK  192  A    between atoms: _455  and  _456
REMARK  193  A    between atoms: _455  and  _458
REMARK  194  A    between atoms: _458  and  _459
REMARK  195  A    between atoms: _459  and  _460
REMARK  196  A    between atoms: _460  and  _461
REMARK  197  A    between atoms: _461  and  _462
REMARK  198  A    between atoms: _466  and  _468
REMARK  199  A    between atoms: _468  and  _469
REMARK  200  A    between atoms: _468  and  _471
REMARK  201  A    between atoms: _471  and  _472
REMARK  202  A    between atoms: _472  and  _473
REMARK  203  A    between atoms: _473  and  _474
REMARK  204  A    between atoms: _483  and  _485
REMARK  205  A    between atoms: _485  and  _486
REMARK  206  A    between atoms: _485  and  _488
REMARK  207  A    between atoms: _491  and  _493
REMARK  208  A    between atoms: _493  and  _494
REMARK  209  A    between atoms: _493  and  _496
REMARK  210  A    between atoms: _496  and  _497
REMARK  211  A    between atoms: _497  and  _498
REMARK  212  A    between atoms: _501  and  _503
REMARK  213  A    between atoms: _503  and  _504
REMARK  214  A    between atoms: _503  and  _506
REMARK  215  A    between atoms: _508  and  _510
REMARK  216  A    between atoms: _510  and  _511
REMARK  217  A    between atoms: _510  and  _513
REMARK  218  A    between atoms: _516  and  _518
REMARK  219  A    between atoms: _518  and  _519
REMARK  220  A    between atoms: _518  and  _521
REMARK  221  A    between atoms: _521  and  _522
REMARK  222  A    between atoms: _524  and  _526
REMARK  223  A    between atoms: _526  and  _527
REMARK  224  A    between atoms: _526  and  _529
REMARK  225  A    between atoms: _529  and  _530
REMARK  226  A    between atoms: _533  and  _535
REMARK  227  A    between atoms: _535  and  _536
REMARK  228  A    between atoms: _535  and  _538
REMARK  229  A    between atoms: _538  and  _539
REMARK  230  A    between atoms: _539  and  _540
REMARK  231  A    between atoms: _540  and  _541
REMARK  232  A    between atoms: _550  and  _552
REMARK  233  A    between atoms: _552  and  _553
REMARK  234  A    between atoms: _552  and  _555
REMARK  235  A    between atoms: _555  and  _556
REMARK  236  A    between atoms: _561  and  _562
REMARK  237  A    between atoms: _564  and  _566
REMARK  238  A    between atoms: _566  and  _567
REMARK  239  A    between atoms: _566  and  _569
REMARK  240  A    between atoms: _569  and  _570
REMARK  241  A    between atoms: _570  and  _571
REMARK                            x       y       z     vdW  Elec       q    Type
REMARK                         _______ _______ _______ _____ _____    ______ ____
ROOT
ATOM      1  C   ILE A   3      -0.137  -8.869  12.359  0.00  0.00    +0.241 C 
ATOM      2  N   LYS A   4       1.013  -8.507  12.889  0.00  0.00    -0.297 N 
ATOM      3  H   LYS A   4       1.026  -7.719  13.568  0.00  0.00    +0.150 HD
ATOM      4  O   ILE A   3      -0.229  -9.720  11.494  0.00  0.00    -0.273 OA
ENDROOT
BRANCH   2   5
ATOM      5  CA  LYS A   4       2.268  -9.169  12.560  0.00  0.00    +0.149 C 
BRANCH   5   6
ATOM      6  C   LYS A   4       2.651 -10.083  13.732  0.00  0.00    +0.241 C 
ATOM      7  O   LYS A   4       2.729  -9.630  14.866  0.00  0.00    -0.273 OA
ATOM      8  N   ARG A   5       2.872 -11.360  13.449  0.00  0.00    -0.298 N 
ATOM      9  H   ARG A   5       2.752 -11.679  12.466  0.00  0.00    +0.150 HD
BRANCH   8  10
ATOM     10  CA  ARG A   5       3.278 -12.343  14.459  0.00  0.00    +0.137 C 
BRANCH  10  11
ATOM     11  C   ARG A   5       4.689 -12.767  14.138  0.00  0.00    +0.227 C 
ATOM     12  O   ARG A   5       4.928 -13.338  13.088  0.00  0.00    -0.286 OA
ENDBRANCH  10  11
BRANCH  10  13
ATOM     13  CB  ARG A   5       2.367 -13.573  14.429  0.00  0.00    +0.031 C 
BRANCH  13  14
ATOM     14  CG  ARG A   5       0.961 -13.342  14.960  0.00  0.00    +0.045 C 
BRANCH  14  15
ATOM     15  CD  ARG A   5       0.058 -14.543  14.812  0.00  0.00    +0.174 C 
BRANCH  15  16
ATOM     16  NE  ARG A   5      -1.289 -14.336  15.367  0.00  0.00    -0.265 N 
ATOM     17  HE  ARG A   5      -1.418 -14.512  16.384  0.00  0.00    +0.259 HD
ATOM     18  CZ  ARG A   5      -2.360 -13.941  14.674  0.00  0.00    +0.342 C 
ATOM     19  NH2 ARG A   5      -3.520 -13.821  15.295  0.00  0.00    -0.292 N 
ATOM     20 HH21 ARG A   5      -3.590 -14.033  16.311  0.00  0.00    +0.255 HD
ATOM     21 HH22 ARG A   5      -4.363 -13.514  14.768  0.00  0.00    +0.255 HD
ATOM     22  NH1 ARG A   5      -2.295 -13.668  13.371  0.00  0.00    -0.292 N 
ATOM     23 HH11 ARG A   5      -1.391 -13.760  12.865  0.00  0.00    +0.255 HD
ATOM     24 HH12 ARG A   5      -3.148 -13.363  12.861  0.00  0.00    +0.255 HD
ENDBRANCH  15  16
ENDBRANCH  14  15
ENDBRANCH  13  14
ENDBRANCH  10  13
ENDBRANCH   8  10
ENDBRANCH   5   6
BRANCH   5  25
ATOM     25  CB  LYS A   4       3.329  -8.103  12.317  0.00  0.00    +0.029 C 
BRANCH  25  26
ATOM     26  CG  LYS A   4       4.711  -8.619  11.951  0.00  0.00    +0.000 C 
BRANCH  26  27
ATOM     27  CD  LYS A   4       5.510  -7.571  11.112  0.00  0.00    -0.024 C 
BRANCH  27  28
ATOM     28  CE  LYS A   4       6.991  -7.482  11.520  0.00  0.00    -0.086 C 
BRANCH  28  29
ATOM     29  NZ  LYS A   4       7.903  -7.092  10.388  0.00  0.00    +0.380 N 
ATOM     30  HZ1 LYS A   4       8.883  -7.051  10.733  0.00  0.00    -0.089 HD
ATOM     31  HZ2 LYS A   4       7.623  -6.159  10.025  0.00  0.00    -0.089 HD
ATOM     32  HZ3 LYS A   4       7.831  -7.798   9.627  0.00  0.00    -0.089 HD
ENDBRANCH  28  29
ENDBRANCH  27  28
ENDBRANCH  26  27
ENDBRANCH  25  26
ENDBRANCH   5  25
ENDBRANCH   2   5
BRANCH   1  33
ATOM     33  CA  ILE A   3      -1.359  -8.133  12.863  0.00  0.00    +0.149 C 
BRANCH  33  36
ATOM     34  C   THR A   2      -1.824  -6.045  11.693  0.00  0.00    +0.243 C 
ATOM     35  O   THR A   2      -1.401  -5.366  12.606  0.00  0.00    -0.273 OA
ATOM     36  N   ILE A   3      -1.877  -7.364  11.751  0.00  0.00    -0.297 N 
ATOM     37  H   ILE A   3      -2.313  -7.876  10.958  0.00  0.00    +0.150 HD
BRANCH  34  38
ATOM     38  CA  THR A   2      -2.336  -5.408  10.407  0.00  0.00    +0.176 C 
BRANCH  38  40
ATOM     39  C   THR A   1      -4.543  -4.435  10.081  0.00  0.00    +0.241 C 
ATOM     40  N   THR A   2      -3.371  -4.435  10.701  0.00  0.00    -0.295 N 
ATOM     41  H   THR A   2      -3.187  -3.711  11.425  0.00  0.00    +0.150 HD
ATOM     42  O   THR A   1      -4.844  -5.259   9.236  0.00  0.00    -0.274 OA
BRANCH  39  43
ATOM     43  CA  THR A   1      -5.508  -3.321  10.429  0.00  0.00    +0.172 C 
BRANCH  43  44
ATOM     44  N   THR A   1      -6.456  -3.187   9.334  0.00  0.00    -0.236 NA
ATOM     45  H   THR A   1      -6.838  -4.045   8.887  0.00  0.00    +0.142 HD
ENDBRANCH  43  44
BRANCH  43  46
ATOM     46  CB  THR A   1      -6.249  -3.564  11.782  0.00  0.00    +0.135 C 
ATOM     47  CG2 THR A   1      -6.867  -4.959  11.846  0.00  0.00    +0.034 C 
BRANCH  46  48
ATOM     48  OG1 THR A   1      -5.314  -3.539  12.865  0.00  0.00    -0.383 OA
ATOM     49  HG1 THR A   1      -5.794  -3.694  13.717  0.00  0.00    +0.210 HD
ENDBRANCH  46  48
ENDBRANCH  43  46
ENDBRANCH  39  43
ENDBRANCH  38  40
BRANCH  38  50
ATOM     50  CB  THR A   2      -1.182  -4.726   9.645  0.00  0.00    +0.137 C 
ATOM     51  CG2 THR A   2      -0.203  -5.733   9.059  0.00  0.00    +0.034 C 
BRANCH  50  52
ATOM     52  OG1 THR A   2      -1.697  -4.065   8.490  0.00  0.00    -0.382 OA
ATOM     53  HG1 THR A   2      -0.954  -3.628   8.003  0.00  0.00    +0.210 HD
ENDBRANCH  50  52
ENDBRANCH  38  50
ENDBRANCH  34  38
ENDBRANCH  33  36
BRANCH  33  54
ATOM     54  CB  ILE A   3      -2.431  -9.125  13.349  0.00  0.00    +0.027 C 
ATOM     55  CG2 ILE A   3      -1.904 -10.003  14.453  0.00  0.00    +0.002 C 
BRANCH  54  56
ATOM     56  CG1 ILE A   3      -3.661  -8.365  13.825  0.00  0.00    +0.002 C 
ATOM     57  CD1 ILE A   3      -4.919  -8.865  13.267  0.00  0.00    +0.000 C 
ENDBRANCH  54  56
ENDBRANCH  33  54
ENDBRANCH   1  33
TORSDOF 25
REMARK  Name = ../refined-set-2016/2qm9/2qm9_pocket.pdb
REMARK  241 active torsions:
REMARK  status: ('A' for Active; 'I' for Inactive)
REMARK    1  A    between atoms: _1  and  _3
REMARK    2  A    between atoms: _3  and  _4
REMARK    3  A    between atoms: _3  and  _6
REMARK    4  A    between atoms: _6  and  _7
REMARK    5  A    between atoms: _10  and  _12
REMARK    6  A    between atoms: _12  and  _13
REMARK    7  A    between atoms: _12  and  _15
REMARK    8  A    between atoms: _15  and  _16
REMARK    9  A    between atoms: _18  and  _20
REMARK   10  A    between atoms: _20  and  _21
REMARK   11  A    between atoms: _20  and  _23
REMARK   12  A    between atoms: _23  and  _24
REMARK   13  A    between atoms: _30  and  _32
REMARK   14  A    between atoms: _32  and  _33
REMARK   15  A    between atoms: _32  and  _35
REMARK   16  A    between atoms: _35  and  _36
REMARK   17  A    between atoms: _41  and  _42
REMARK   18  A    between atoms: _44  and  _46
REMARK   19  A    between atoms: _46  and  _47
REMARK   20  A    between atoms: _46  and  _49
REMARK   21  A    between atoms: _49  and  _50
REMARK   22  A    between atoms: _50  and  _51
REMARK   23  A    between atoms: _53  and  _55
REMARK   24  A    between atoms: _55  and  _56
REMARK   25  A    between atoms: _55  and  _58
REMARK   26  A    between atoms: _58  and  _59
REMARK   27  A    between atoms: _59  and  _60
REMARK   28  A    between atoms: _60  and  _61
REMARK   29  A    between atoms: _61  and  _62
REMARK   30  A    between atoms: _66  and  _68
REMARK   31  A    between atoms: _68  and  _69
REMARK   32  A    between atoms: _68  and  _71
REMARK   33  A    between atoms: _74  and  _76
REMARK   34  A    between atoms: _76  and  _77
REMARK   35  A    between atoms: _79  and  _81
REMARK   36  A    between atoms: _81  and  _82
REMARK   37  A    between atoms: _81  and  _84
REMARK   38  A    between atoms: _87  and  _89
REMARK   39  A    between atoms: _89  and  _90
REMARK   40  A    between atoms: _92  and  _94
REMARK   41  A    between atoms: _94  and  _95
REMARK   42  A    between atoms: _94  and  _97
REMARK   43  A    between atoms: _97  and  _98
REMARK   44  A    between atoms: _101  and  _103
REMARK   45  A    between atoms: _103  and  _104
REMARK   46  A    between atoms: _103  and  _106
REMARK   47  A    between atoms: _106  and  _107
REMARK   48  A    between atoms: _107  and  _108
REMARK   49  A    between atoms: _108  and  _109
REMARK   50  A    between atoms: _118  and  _120
REMARK   51  A    between atoms: _120  and  _121
REMARK   52  A    between atoms: _120  and  _123
REMARK   53  A    between atoms: _126  and  _128
REMARK   54  A    between atoms: _128  and  _129
REMARK   55  A    between atoms: _132  and  _134
REMARK   56  A    between atoms: _134  and  _135
REMARK   57  A    between atoms: _137  and  _139
REMARK   58  A    between atoms: _139  and  _140
REMARK   59  A    between atoms: _139  and  _142
REMARK   60  A    between atoms: _142  and  _143
REMARK   61  A    between atoms: _143  and  _144
REMARK   62  A    between atoms: _146  and  _148
REMARK   63  A    between atoms: _148  and  _149
REMARK   64  A    between atoms: _152  and  _154
REMARK   65  A    between atoms: _154  and  _155
REMARK   66  A    between atoms: _154  and  _157
REMARK   67  A    between atoms: _157  and  _158
REMARK   68  A    between atoms: _158  and  _159
REMARK   69  A    between atoms: _159  and  _160
REMARK   70  A    between atoms: _160  and  _161
REMARK   71  A    between atoms: _166  and  _167
REMARK   72  A    between atoms: _172  and  _174
REMARK   73  A    between atoms: _174  and  _175
REMARK   74  A    between atoms: _174  and  _177
REMARK   75  A    between atoms: _177  and  _178
REMARK   76  A    between atoms: _183  and  _185
REMARK   77  A    between atoms: _185  and  _186
REMARK   78  A    between atoms: _185  and  _188
REMARK   79  A    between atoms: _188  and  _189
REMARK   80  A    between atoms: _189  and  _190
REMARK   81  A    between atoms: _192  and  _194
REMARK   82  A    between atoms: _194  and  _195
REMARK   83  A    between atoms: _194  and  _197
REMARK   84  A    between atoms: _197  and  _198
REMARK   85  A    between atoms: _201  and  _203
REMARK   86  A    between atoms: _203  and  _204
REMARK   87  A    between atoms: _203  and  _206
REMARK   88  A    between atoms: _206  and  _207
REMARK   89  A    between atoms: _207  and  _208
REMARK   90  A    between atoms: _208  and  _209
REMARK   91  A    between atoms: _218  and  _220
REMARK   92  A    between atoms: _220  and  _221
REMARK   93  A    between atoms: _220  and  _223
REMARK   94  A    between atoms: _223  and  _224
REMARK   95  A    between atoms: _226  and  _228
REMARK   96  A    between atoms: _228  and  _229
REMARK   97  A    between atoms: _228  and  _231
REMARK   98  A    between atoms: _231  and  _232
REMARK   99  A    between atoms: _232  and  _233
REMARK  100  A    between atoms: _236  and  _238
REMARK  101  A    between atoms: _238  and  _239
REMARK  102  A    between atoms: _238  and  _241
REMARK  103  A    between atoms: _241  and  _242
REMARK  104  A    between atoms: _244  and  _246
REMARK  105  A    between atoms: _246  and  _247
REMARK  106  A    between atoms: _246  and  _249
REMARK  107  A    between atoms: _249  and  _250
REMARK  108  A    between atoms: _253  and  _255
REMARK  109  A    between atoms: _255  and  _256
REMARK  110  A    between atoms: _255  and  _258
REMARK  111  A    between atoms: _258  and  _259
REMARK  112  A    between atoms: _265  and  _267
REMARK  113  A    between atoms: _267  and  _268
REMARK  114  A    between atoms: _267  and  _270
REMARK  115  A    between atoms: _270  and  _271
REMARK  116  A    between atoms: _271  and  _272
REMARK  117  A    between atoms: _272  and  _273
REMARK  118  A    between atoms: _273  and  _274
REMARK  119  A    between atoms: _278  and  _280
REMARK  120  A    between atoms: _280  and  _281
REMARK  121  A    between atoms: _280  and  _283
REMARK  122  A    between atoms: _283  and  _284
REMARK  123  A    between atoms: _289  and  _291
REMARK  124  A    between atoms: _291  and  _292
REMARK  125  A    between atoms: _291  and  _294
REMARK  126  A    between atoms: _294  and  _295
REMARK  127  A    between atoms: _298  and  _300
REMARK  128  A    between atoms: _300  and  _301
REMARK  129  A    between atoms: _300  and  _303
REMARK  130  A    between atoms: _303  and  _304
REMARK  131  A    between atoms: _304  and  _305
REMARK  132  A    between atoms: _308  and  _310
REMARK  133  A    between atoms: _310  and  _311
REMARK  134  A    between atoms: _310  and  _313
REMARK  135  A    between atoms: _313  and  _314
REMARK  136  A    between atoms: _317  and  _319
REMARK  137  A    between atoms: _319  and  _320
REMARK  138  A    between atoms: _319  and  _322
REMARK  139  A    between atoms: _322  and  _323
REMARK  140  A    between atoms: _323  and  _324
REMARK  141  A    between atoms: _327  and  _329
REMARK  142  A    between atoms: _329  and  _330
REMARK  143  A    between atoms: _329  and  _332
REMARK  144  A    between atoms: _332  and  _333
REMARK  145  A    between atoms: _336  and  _338
REMARK  146  A    between atoms: _338  and  _339
REMARK  147  A    between atoms: _338  and  _341
REMARK  148  A    between atoms: _341  and  _342
REMARK  149  A    between atoms: _345  and  _347
REMARK  150  A    between atoms: _347  and  _348
REMARK  151  A    between atoms: _351  and  _353
REMARK  152  A    between atoms: _353  and  _354
REMARK  153  A    between atoms: _353  and  _356
REMARK  154  A    between atoms: _356  and  _357
REMARK  155  A    between atoms: _360  and  _362
REMARK  156  A    between atoms: _362  and  _363
REMARK  157  A    between atoms: _362  and  _365
REMARK  158  A    between atoms: _365  and  _366
REMARK  159  A    between atoms: _369  and  _371
REMARK  160  A    between atoms: _371  and  _372
REMARK  161  A    between atoms: _371  and  _374
REMARK  162  A    between atoms: _374  and  _375
REMARK  163  A    between atoms: _375  and  _376
REMARK  164  A    between atoms: _376  and  _377
REMARK  165  A    between atoms: _386  and  _388
REMARK  166  A    between atoms: _388  and  _389
REMARK  167  A    between atoms: _388  and  _391
REMARK  168  A    between atoms: _391  and  _392
REMARK  169  A    between atoms: _392  and  _393
REMARK  170  A    between atoms: _398  and  _400
REMARK  171  A    between atoms: _400  and  _401
REMARK  172  A    between atoms: _400  and  _403
REMARK  173  A    between atoms: _403  and  _404
REMARK  174  A    between atoms: _404  and  _405
REMARK  175  A    between atoms: _410  and  _412
REMARK  176  A    between atoms: _412  and  _413
REMARK  177  A    between atoms: _412  and  _415
REMARK  178  A    between atoms: _415  and  _416
REMARK  179  A    between atoms: _426  and  _428
REMARK  180  A    between atoms: _428  and  _429
REMARK  181  A    between atoms: _428  and  _431
REMARK  182  A    between atoms: _431  and  _432
REMARK  183  A    between atoms: _435  and  _437
REMARK  184  A    between atoms: _437  and  _438
REMARK  185  A    between atoms: _437  and  _440
REMARK  186  A    between atoms: _440  and  _441
REMARK  187  A    between atoms: _444  and  _446
REMARK  188  A    between atoms: _446  and  _447
REMARK  189  A    between atoms: _446  and  _449
REMARK  190  A    between atoms: _449  and  _450
REMARK  191  A    between atoms: _453  and  _455
REMARK  192  A    between atoms: _455  and  _456
REMARK  193  A    between atoms: _455  and  _458
REMARK  194  A    between atoms: _458  and  _459
REMARK  195  A    between atoms: _459  and  _460
REMARK  196  A    between atoms: _460  and  _461
REMARK  197  A    between atoms: _461  and  _462
REMARK  198  A    between atoms: _466  and  _468
REMARK  199  A    between atoms: _468  and  _469
REMARK  200  A    between atoms: _468  and  _471
REMARK  201  A    between atoms: _471  and  _472
REMARK  202  A    between atoms: _472  and  _473
REMARK  203  A    between atoms: _473  and  _474
REMARK  204  A    between atoms: _483  and  _485
REMARK  205  A    between atoms: _485  and  _486
REMARK  206  A    between atoms: _485  and  _488
REMARK  207  A    between atoms: _491  and  _493
REMARK  208  A    between atoms: _493  and  _494
REMARK  209  A    between atoms: _493  and  _496
REMARK  210  A    between atoms: _496  and  _497
REMARK  211  A    between atoms: _497  and  _498
REMARK  212  A    between atoms: _501  and  _503
REMARK  213  A    between atoms: _503  and  _504
REMARK  214  A    between atoms: _503  and  _506
REMARK  215  A    between atoms: _508  and  _510
REMARK  216  A    between atoms: _510  and  _511
REMARK  217  A    between atoms: _510  and  _513
REMARK  218  A    between atoms: _516  and  _518
REMARK  219  A    between atoms: _518  and  _519
REMARK  220  A    between atoms: _518  and  _521
REMARK  221  A    between atoms: _521  and  _522
REMARK  222  A    between atoms: _524  and  _526
REMARK  223  A    between atoms: _526  and  _527
REMARK  224  A    between atoms: _526  and  _529
REMARK  225  A    between atoms: _529  and  _530
REMARK  226  A    between atoms: _533  and  _535
REMARK  227  A    between atoms: _535  and  _536
REMARK  228  A    between atoms: _535  and  _538
REMARK  229  A    between atoms: _538  and  _539
REMARK  230  A    between atoms: _539  and  _540
REMARK  231  A    between atoms: _540  and  _541
REMARK  232  A    between atoms: _550  and  _552
REMARK  233  A    between atoms: _552  and  _553
REMARK  234  A    between atoms: _552  and  _555
REMARK  235  A    between atoms: _555  and  _556
REMARK  236  A    between atoms: _561  and  _562
REMARK  237  A    between atoms: _564  and  _566
REMARK  238  A    between atoms: _566  and  _567
REMARK  239  A    between atoms: _566  and  _569
REMARK  240  A    between atoms: _569  and  _570
REMARK  241  A    between atoms: _570  and  _571
REMARK                            x       y       z     vdW  Elec       q    Type
REMARK                         _______ _______ _______ _____ _____    ______ ____
ROOT
ATOM      1  C   GLU A   2       1.038  -6.084  15.997  0.00  0.00    +0.241 C 
ATOM      2  N   CYS A   3       0.118  -5.284  16.535  0.00  0.00    -0.296 N 
ATOM      3  H   CYS A   3       0.294  -4.892  17.482  0.00  0.00    +0.150 HD
ATOM      4  O   GLU A   2       0.916  -6.595  14.889  0.00  0.00    -0.273 OA
ENDROOT
BRANCH   1   5
ATOM      5  CA  GLU A   2       2.272  -6.370  16.845  0.00  0.00    +0.149 C 
BRANCH   5   8
ATOM      6  C   VAL A   1       2.256  -8.452  18.112  0.00  0.00    +0.238 C 
ATOM      7  O   VAL A   1       2.042  -7.860  19.166  0.00  0.00    -0.274 OA
ATOM      8  N   GLU A   2       2.429  -7.816  16.962  0.00  0.00    -0.297 N 
ATOM      9  H   GLU A   2       2.685  -8.365  16.116  0.00  0.00    +0.150 HD
BRANCH   6  10
ATOM     10  CA  VAL A   1       2.369  -9.979  18.089  0.00  0.00    +0.145 C 
BRANCH  10  11
ATOM     11  CB  VAL A   1       1.051 -10.613  18.595  0.00  0.00    +0.025 C 
ATOM     12  CG2 VAL A   1       1.217 -12.133  18.790  0.00  0.00    +0.002 C 
ATOM     13  CG1 VAL A   1      -0.110 -10.300  17.650  0.00  0.00    +0.002 C 
ENDBRANCH  10  11
BRANCH  10  14
ATOM     14  N   VAL A   1       3.487 -10.386  18.935  0.00  0.00    -0.238 NA
ATOM     15  H   VAL A   1       3.378 -10.308  19.966  0.00  0.00    +0.142 HD
ENDBRANCH  10  14
ENDBRANCH   6  10
ENDBRANCH   5   8
BRANCH   5  16
ATOM     16  CB  GLU A   2       3.504  -5.747  16.205  0.00  0.00    +0.041 C 
BRANCH  16  17
ATOM     17  CG  GLU A   2       4.725  -5.728  17.114  0.00  0.00    +0.116 C 
BRANCH  17  18
ATOM     18  CD  GLU A   2       6.038  -5.408  16.380  0.00  0.00    +0.365 C 
ATOM     19  OE2 GLU A   2       6.822  -4.568  16.900  0.00  0.00    -0.246 OA
ATOM     20  OE1 GLU A   2       6.301  -6.004  15.297  0.00  0.00    -0.246 OA
ENDBRANCH  17  18
ENDBRANCH  16  17
ENDBRANCH   5  16
ENDBRANCH   1   5
BRANCH   2  21
ATOM     21  CA  CYS A   3      -1.122  -4.934  15.859  0.00  0.00    +0.160 C 
BRANCH  21  22
ATOM     22  C   CYS A   3      -1.149  -3.435  15.582  0.00  0.00    +0.242 C 
ATOM     23  O   CYS A   3      -0.981  -2.644  16.512  0.00  0.00    -0.273 OA
ATOM     24  N   VAL A   4      -1.410  -3.043  14.333  0.00  0.00    -0.298 N 
ATOM     25  H   VAL A   4      -1.670  -3.761  13.627  0.00  0.00    +0.150 HD
BRANCH  24  26
ATOM     26  CA  VAL A   4      -1.344  -1.626  13.915  0.00  0.00    +0.137 C 
BRANCH  26  27
ATOM     27  CB  VAL A   4      -0.119  -1.377  12.979  0.00  0.00    +0.026 C 
ATOM     28  CG2 VAL A   4       1.158  -1.949  13.609  0.00  0.00    +0.002 C 
ATOM     29  CG1 VAL A   4       0.059   0.108  12.631  0.00  0.00    +0.002 C 
ENDBRANCH  26  27
BRANCH  26  30
ATOM     30  C   VAL A   4      -2.643  -1.150  13.232  0.00  0.00    +0.227 C 
ATOM     31  O   VAL A   4      -3.177  -1.811  12.330  0.00  0.00    -0.286 OA
ENDBRANCH  26  30
ENDBRANCH  24  26
ENDBRANCH  21  22
BRANCH  21  32
ATOM     32  CB  CYS A   3      -2.329  -5.304  16.731  0.00  0.00    +0.098 C 
ATOM     33  SG  CYS A   3      -2.411  -7.013  17.309  0.00  0.00    -0.080 S 
ENDBRANCH  21  32
ENDBRANCH   2  21
TORSDOF 14
REMARK  Name = ../refined-set-2016/2qm9/2qm9_pocket.pdb
REMARK  241 active torsions:
REMARK  status: ('A' for Active; 'I' for Inactive)
REMARK    1  A    between atoms: _1  and  _3
REMARK    2  A    between atoms: _3  and  _4
REMARK    3  A    between atoms: _3  and  _6
REMARK    4  A    between atoms: _6  and  _7
REMARK    5  A    between atoms: _10  and  _12
REMARK    6  A    between atoms: _12  and  _13
REMARK    7  A    between atoms: _12  and  _15
REMARK    8  A    between atoms: _15  and  _16
REMARK    9  A    between atoms: _18  and  _20
REMARK   10  A    between atoms: _20  and  _21
REMARK   11  A    between atoms: _20  and  _23
REMARK   12  A    between atoms: _23  and  _24
REMARK   13  A    between atoms: _30  and  _32
REMARK   14  A    between atoms: _32  and  _33
REMARK   15  A    between atoms: _32  and  _35
REMARK   16  A    between atoms: _35  and  _36
REMARK   17  A    between atoms: _41  and  _42
REMARK   18  A    between atoms: _44  and  _46
REMARK   19  A    between atoms: _46  and  _47
REMARK   20  A    between atoms: _46  and  _49
REMARK   21  A    between atoms: _49  and  _50
REMARK   22  A    between atoms: _50  and  _51
REMARK   23  A    between atoms: _53  and  _55
REMARK   24  A    between atoms: _55  and  _56
REMARK   25  A    between atoms: _55  and  _58
REMARK   26  A    between atoms: _58  and  _59
REMARK   27  A    between atoms: _59  and  _60
REMARK   28  A    between atoms: _60  and  _61
REMARK   29  A    between atoms: _61  and  _62
REMARK   30  A    between atoms: _66  and  _68
REMARK   31  A    between atoms: _68  and  _69
REMARK   32  A    between atoms: _68  and  _71
REMARK   33  A    between atoms: _74  and  _76
REMARK   34  A    between atoms: _76  and  _77
REMARK   35  A    between atoms: _79  and  _81
REMARK   36  A    between atoms: _81  and  _82
REMARK   37  A    between atoms: _81  and  _84
REMARK   38  A    between atoms: _87  and  _89
REMARK   39  A    between atoms: _89  and  _90
REMARK   40  A    between atoms: _92  and  _94
REMARK   41  A    between atoms: _94  and  _95
REMARK   42  A    between atoms: _94  and  _97
REMARK   43  A    between atoms: _97  and  _98
REMARK   44  A    between atoms: _101  and  _103
REMARK   45  A    between atoms: _103  and  _104
REMARK   46  A    between atoms: _103  and  _106
REMARK   47  A    between atoms: _106  and  _107
REMARK   48  A    between atoms: _107  and  _108
REMARK   49  A    between atoms: _108  and  _109
REMARK   50  A    between atoms: _118  and  _120
REMARK   51  A    between atoms: _120  and  _121
REMARK   52  A    between atoms: _120  and  _123
REMARK   53  A    between atoms: _126  and  _128
REMARK   54  A    between atoms: _128  and  _129
REMARK   55  A    between atoms: _132  and  _134
REMARK   56  A    between atoms: _134  and  _135
REMARK   57  A    between atoms: _137  and  _139
REMARK   58  A    between atoms: _139  and  _140
REMARK   59  A    between atoms: _139  and  _142
REMARK   60  A    between atoms: _142  and  _143
REMARK   61  A    between atoms: _143  and  _144
REMARK   62  A    between atoms: _146  and  _148
REMARK   63  A    between atoms: _148  and  _149
REMARK   64  A    between atoms: _152  and  _154
REMARK   65  A    between atoms: _154  and  _155
REMARK   66  A    between atoms: _154  and  _157
REMARK   67  A    between atoms: _157  and  _158
REMARK   68  A    between atoms: _158  and  _159
REMARK   69  A    between atoms: _159  and  _160
REMARK   70  A    between atoms: _160  and  _161
REMARK   71  A    between atoms: _166  and  _167
REMARK   72  A    between atoms: _172  and  _174
REMARK   73  A    between atoms: _174  and  _175
REMARK   74  A    between atoms: _174  and  _177
REMARK   75  A    between atoms: _177  and  _178
REMARK   76  A    between atoms: _183  and  _185
REMARK   77  A    between atoms: _185  and  _186
REMARK   78  A    between atoms: _185  and  _188
REMARK   79  A    between atoms: _188  and  _189
REMARK   80  A    between atoms: _189  and  _190
REMARK   81  A    between atoms: _192  and  _194
REMARK   82  A    between atoms: _194  and  _195
REMARK   83  A    between atoms: _194  and  _197
REMARK   84  A    between atoms: _197  and  _198
REMARK   85  A    between atoms: _201  and  _203
REMARK   86  A    between atoms: _203  and  _204
REMARK   87  A    between atoms: _203  and  _206
REMARK   88  A    between atoms: _206  and  _207
REMARK   89  A    between atoms: _207  and  _208
REMARK   90  A    between atoms: _208  and  _209
REMARK   91  A    between atoms: _218  and  _220
REMARK   92  A    between atoms: _220  and  _221
REMARK   93  A    between atoms: _220  and  _223
REMARK   94  A    between atoms: _223  and  _224
REMARK   95  A    between atoms: _226  and  _228
REMARK   96  A    between atoms: _228  and  _229
REMARK   97  A    between atoms: _228  and  _231
REMARK   98  A    between atoms: _231  and  _232
REMARK   99  A    between atoms: _232  and  _233
REMARK  100  A    between atoms: _236  and  _238
REMARK  101  A    between atoms: _238  and  _239
REMARK  102  A    between atoms: _238  and  _241
REMARK  103  A    between atoms: _241  and  _242
REMARK  104  A    between atoms: _244  and  _246
REMARK  105  A    between atoms: _246  and  _247
REMARK  106  A    between atoms: _246  and  _249
REMARK  107  A    between atoms: _249  and  _250
REMARK  108  A    between atoms: _253  and  _255
REMARK  109  A    between atoms: _255  and  _256
REMARK  110  A    between atoms: _255  and  _258
REMARK  111  A    between atoms: _258  and  _259
REMARK  112  A    between atoms: _265  and  _267
REMARK  113  A    between atoms: _267  and  _268
REMARK  114  A    between atoms: _267  and  _270
REMARK  115  A    between atoms: _270  and  _271
REMARK  116  A    between atoms: _271  and  _272
REMARK  117  A    between atoms: _272  and  _273
REMARK  118  A    between atoms: _273  and  _274
REMARK  119  A    between atoms: _278  and  _280
REMARK  120  A    between atoms: _280  and  _281
REMARK  121  A    between atoms: _280  and  _283
REMARK  122  A    between atoms: _283  and  _284
REMARK  123  A    between atoms: _289  and  _291
REMARK  124  A    between atoms: _291  and  _292
REMARK  125  A    between atoms: _291  and  _294
REMARK  126  A    between atoms: _294  and  _295
REMARK  127  A    between atoms: _298  and  _300
REMARK  128  A    between atoms: _300  and  _301
REMARK  129  A    between atoms: _300  and  _303
REMARK  130  A    between atoms: _303  and  _304
REMARK  131  A    between atoms: _304  and  _305
REMARK  132  A    between atoms: _308  and  _310
REMARK  133  A    between atoms: _310  and  _311
REMARK  134  A    between atoms: _310  and  _313
REMARK  135  A    between atoms: _313  and  _314
REMARK  136  A    between atoms: _317  and  _319
REMARK  137  A    between atoms: _319  and  _320
REMARK  138  A    between atoms: _319  and  _322
REMARK  139  A    between atoms: _322  and  _323
REMARK  140  A    between atoms: _323  and  _324
REMARK  141  A    between atoms: _327  and  _329
REMARK  142  A    between atoms: _329  and  _330
REMARK  143  A    between atoms: _329  and  _332
REMARK  144  A    between atoms: _332  and  _333
REMARK  145  A    between atoms: _336  and  _338
REMARK  146  A    between atoms: _338  and  _339
REMARK  147  A    between atoms: _338  and  _341
REMARK  148  A    between atoms: _341  and  _342
REMARK  149  A    between atoms: _345  and  _347
REMARK  150  A    between atoms: _347  and  _348
REMARK  151  A    between atoms: _351  and  _353
REMARK  152  A    between atoms: _353  and  _354
REMARK  153  A    between atoms: _353  and  _356
REMARK  154  A    between atoms: _356  and  _357
REMARK  155  A    between atoms: _360  and  _362
REMARK  156  A    between atoms: _362  and  _363
REMARK  157  A    between atoms: _362  and  _365
REMARK  158  A    between atoms: _365  and  _366
REMARK  159  A    between atoms: _369  and  _371
REMARK  160  A    between atoms: _371  and  _372
REMARK  161  A    between atoms: _371  and  _374
REMARK  162  A    between atoms: _374  and  _375
REMARK  163  A    between atoms: _375  and  _376
REMARK  164  A    between atoms: _376  and  _377
REMARK  165  A    between atoms: _386  and  _388
REMARK  166  A    between atoms: _388  and  _389
REMARK  167  A    between atoms: _388  and  _391
REMARK  168  A    between atoms: _391  and  _392
REMARK  169  A    between atoms: _392  and  _393
REMARK  170  A    between atoms: _398  and  _400
REMARK  171  A    between atoms: _400  and  _401
REMARK  172  A    between atoms: _400  and  _403
REMARK  173  A    between atoms: _403  and  _404
REMARK  174  A    between atoms: _404  and  _405
REMARK  175  A    between atoms: _410  and  _412
REMARK  176  A    between atoms: _412  and  _413
REMARK  177  A    between atoms: _412  and  _415
REMARK  178  A    between atoms: _415  and  _416
REMARK  179  A    between atoms: _426  and  _428
REMARK  180  A    between atoms: _428  and  _429
REMARK  181  A    between atoms: _428  and  _431
REMARK  182  A    between atoms: _431  and  _432
REMARK  183  A    between atoms: _435  and  _437
REMARK  184  A    between atoms: _437  and  _438
REMARK  185  A    between atoms: _437  and  _440
REMARK  186  A    between atoms: _440  and  _441
REMARK  187  A    between atoms: _444  and  _446
REMARK  188  A    between atoms: _446  and  _447
REMARK  189  A    between atoms: _446  and  _449
REMARK  190  A    between atoms: _449  and  _450
REMARK  191  A    between atoms: _453  and  _455
REMARK  192  A    between atoms: _455  and  _456
REMARK  193  A    between atoms: _455  and  _458
REMARK  194  A    between atoms: _458  and  _459
REMARK  195  A    between atoms: _459  and  _460
REMARK  196  A    between atoms: _460  and  _461
REMARK  197  A    between atoms: _461  and  _462
REMARK  198  A    between atoms: _466  and  _468
REMARK  199  A    between atoms: _468  and  _469
REMARK  200  A    between atoms: _468  and  _471
REMARK  201  A    between atoms: _471  and  _472
REMARK  202  A    between atoms: _472  and  _473
REMARK  203  A    between atoms: _473  and  _474
REMARK  204  A    between atoms: _483  and  _485
REMARK  205  A    between atoms: _485  and  _486
REMARK  206  A    between atoms: _485  and  _488
REMARK  207  A    between atoms: _491  and  _493
REMARK  208  A    between atoms: _493  and  _494
REMARK  209  A    between atoms: _493  and  _496
REMARK  210  A    between atoms: _496  and  _497
REMARK  211  A    between atoms: _497  and  _498
REMARK  212  A    between atoms: _501  and  _503
REMARK  213  A    between atoms: _503  and  _504
REMARK  214  A    between atoms: _503  and  _506
REMARK  215  A    between atoms: _508  and  _510
REMARK  216  A    between atoms: _510  and  _511
REMARK  217  A    between atoms: _510  and  _513
REMARK  218  A    between atoms: _516  and  _518
REMARK  219  A    between atoms: _518  and  _519
REMARK  220  A    between atoms: _518  and  _521
REMARK  221  A    between atoms: _521  and  _522
REMARK  222  A    between atoms: _524  and  _526
REMARK  223  A    between atoms: _526  and  _527
REMARK  224  A    between atoms: _526  and  _529
REMARK  225  A    between atoms: _529  and  _530
REMARK  226  A    between atoms: _533  and  _535
REMARK  227  A    between atoms: _535  and  _536
REMARK  228  A    between atoms: _535  and  _538
REMARK  229  A    between atoms: _538  and  _539
REMARK  230  A    between atoms: _539  and  _540
REMARK  231  A    between atoms: _540  and  _541
REMARK  232  A    between atoms: _550  and  _552
REMARK  233  A    between atoms: _552  and  _553
REMARK  234  A    between atoms: _552  and  _555
REMARK  235  A    between atoms: _555  and  _556
REMARK  236  A    between atoms: _561  and  _562
REMARK  237  A    between atoms: _564  and  _566
REMARK  238  A    between atoms: _566  and  _567
REMARK  239  A    between atoms: _566  and  _569
REMARK  240  A    between atoms: _569  and  _570
REMARK  241  A    between atoms: _570  and  _571
REMARK                            x       y       z     vdW  Elec       q    Type
REMARK                         _______ _______ _______ _____ _____    ______ ____
ROOT
ATOM      1  C   THR A   2       2.140  -6.239  22.392  0.00  0.00    +0.243 C 
ATOM      2  O   THR A   2       1.964  -5.885  23.558  0.00  0.00    -0.273 OA
ATOM      3  N   ARG A   3       2.059  -7.502  22.006  0.00  0.00    -0.298 N 
ATOM      4  H   ARG A   3       2.219  -7.738  21.006  0.00  0.00    +0.150 HD
ENDROOT
BRANCH   1   5
ATOM      5  CA  THR A   2       2.503  -5.230  21.318  0.00  0.00    +0.176 C 
BRANCH   5   7
ATOM      6  C   SER A   1       0.939  -3.732  20.176  0.00  0.00    +0.241 C 
ATOM      7  N   THR A   2       1.494  -4.180  21.297  0.00  0.00    -0.295 N 
ATOM      8  H   THR A   2       1.194  -3.762  22.201  0.00  0.00    +0.150 HD
ATOM      9  O   SER A   1       1.188  -4.200  19.068  0.00  0.00    -0.274 OA
BRANCH   6  10
ATOM     10  CA  SER A   1      -0.071  -2.597  20.335  0.00  0.00    +0.174 C 
BRANCH  10  11
ATOM     11  N   SER A   1      -0.132  -1.785  19.128  0.00  0.00    -0.236 NA
ATOM     12  H   SER A   1      -0.629  -2.172  18.301  0.00  0.00    +0.142 HD
ENDBRANCH  10  11
BRANCH  10  13
ATOM     13  CB  SER A   1      -1.446  -3.196  20.637  0.00  0.00    +0.163 C 
BRANCH  13  14
ATOM     14  OG  SER A   1      -1.390  -4.042  21.771  0.00  0.00    -0.380 OA
ATOM     15  H   SER A   1      -1.090  -3.519  22.557  0.00  0.00    +0.211 HD
ENDBRANCH  13  14
ENDBRANCH  10  13
ENDBRANCH   6  10
ENDBRANCH   5   7
BRANCH   5  16
ATOM     16  CB  THR A   2       3.897  -4.649  21.637  0.00  0.00    +0.137 C 
ATOM     17  CG2 THR A   2       4.983  -5.730  21.549  0.00  0.00    +0.034 C 
BRANCH  16  18
ATOM     18  OG1 THR A   2       4.276  -3.664  20.662  0.00  0.00    -0.382 OA
ATOM     19  HG1 THR A   2       5.171  -3.306  20.887  0.00  0.00    +0.210 HD
ENDBRANCH  16  18
ENDBRANCH   5  16
ENDBRANCH   1   5
BRANCH   3  20
ATOM     20  CA  ARG A   3       1.753  -8.564  22.944  0.00  0.00    +0.137 C 
BRANCH  20  21
ATOM     21  C   ARG A   3       2.765  -9.700  22.815  0.00  0.00    +0.227 C 
ATOM     22  O   ARG A   3       2.999 -10.228  21.738  0.00  0.00    -0.286 OA
ENDBRANCH  20  21
BRANCH  20  23
ATOM     23  CB  ARG A   3       0.314  -9.035  22.739  0.00  0.00    +0.031 C 
BRANCH  23  24
ATOM     24  CG  ARG A   3      -0.671  -8.076  23.390  0.00  0.00    +0.045 C 
BRANCH  24  25
ATOM     25  CD  ARG A   3      -2.062  -8.173  22.874  0.00  0.00    +0.174 C 
BRANCH  25  26
ATOM     26  NE  ARG A   3      -2.774  -9.275  23.518  0.00  0.00    -0.265 N 
ATOM     27  CZ  ARG A   3      -3.442  -9.196  24.664  0.00  0.00    +0.342 C 
ATOM     28  NH2 ARG A   3      -3.506  -8.065  25.359  0.00  0.00    -0.292 N 
ATOM     29 HH21 ARG A   3      -4.037  -8.033  26.253  0.00  0.00    +0.255 HD
ATOM     30 HH22 ARG A   3      -3.026  -7.212  25.009  0.00  0.00    +0.255 HD
ATOM     31  NH1 ARG A   3      -4.046 -10.280  25.130  0.00  0.00    -0.292 N 
ATOM     32 HH11 ARG A   3      -4.573 -10.237  26.025  0.00  0.00    +0.255 HD
ATOM     33 HH12 ARG A   3      -3.992 -11.173  24.600  0.00  0.00    +0.255 HD
ATOM     34  HE  ARG A   3      -2.756 -10.198  23.039  0.00  0.00    +0.259 HD
ENDBRANCH  25  26
ENDBRANCH  24  25
ENDBRANCH  23  24
ENDBRANCH  20  23
ENDBRANCH   3  20
TORSDOF 14
REMARK  Name = ../refined-set-2016/2qm9/2qm9_pocket.pdb
REMARK  241 active torsions:
REMARK  status: ('A' for Active; 'I' for Inactive)
REMARK    1  A    between atoms: _1  and  _3
REMARK    2  A    between atoms: _3  and  _4
REMARK    3  A    between atoms: _3  and  _6
REMARK    4  A    between atoms: _6  and  _7
REMARK    5  A    between atoms: _10  and  _12
REMARK    6  A    between atoms: _12  and  _13
REMARK    7  A    between atoms: _12  and  _15
REMARK    8  A    between atoms: _15  and  _16
REMARK    9  A    between atoms: _18  and  _20
REMARK   10  A    between atoms: _20  and  _21
REMARK   11  A    between atoms: _20  and  _23
REMARK   12  A    between atoms: _23  and  _24
REMARK   13  A    between atoms: _30  and  _32
REMARK   14  A    between atoms: _32  and  _33
REMARK   15  A    between atoms: _32  and  _35
REMARK   16  A    between atoms: _35  and  _36
REMARK   17  A    between atoms: _41  and  _42
REMARK   18  A    between atoms: _44  and  _46
REMARK   19  A    between atoms: _46  and  _47
REMARK   20  A    between atoms: _46  and  _49
REMARK   21  A    between atoms: _49  and  _50
REMARK   22  A    between atoms: _50  and  _51
REMARK   23  A    between atoms: _53  and  _55
REMARK   24  A    between atoms: _55  and  _56
REMARK   25  A    between atoms: _55  and  _58
REMARK   26  A    between atoms: _58  and  _59
REMARK   27  A    between atoms: _59  and  _60
REMARK   28  A    between atoms: _60  and  _61
REMARK   29  A    between atoms: _61  and  _62
REMARK   30  A    between atoms: _66  and  _68
REMARK   31  A    between atoms: _68  and  _69
REMARK   32  A    between atoms: _68  and  _71
REMARK   33  A    between atoms: _74  and  _76
REMARK   34  A    between atoms: _76  and  _77
REMARK   35  A    between atoms: _79  and  _81
REMARK   36  A    between atoms: _81  and  _82
REMARK   37  A    between atoms: _81  and  _84
REMARK   38  A    between atoms: _87  and  _89
REMARK   39  A    between atoms: _89  and  _90
REMARK   40  A    between atoms: _92  and  _94
REMARK   41  A    between atoms: _94  and  _95
REMARK   42  A    between atoms: _94  and  _97
REMARK   43  A    between atoms: _97  and  _98
REMARK   44  A    between atoms: _101  and  _103
REMARK   45  A    between atoms: _103  and  _104
REMARK   46  A    between atoms: _103  and  _106
REMARK   47  A    between atoms: _106  and  _107
REMARK   48  A    between atoms: _107  and  _108
REMARK   49  A    between atoms: _108  and  _109
REMARK   50  A    between atoms: _118  and  _120
REMARK   51  A    between atoms: _120  and  _121
REMARK   52  A    between atoms: _120  and  _123
REMARK   53  A    between atoms: _126  and  _128
REMARK   54  A    between atoms: _128  and  _129
REMARK   55  A    between atoms: _132  and  _134
REMARK   56  A    between atoms: _134  and  _135
REMARK   57  A    between atoms: _137  and  _139
REMARK   58  A    between atoms: _139  and  _140
REMARK   59  A    between atoms: _139  and  _142
REMARK   60  A    between atoms: _142  and  _143
REMARK   61  A    between atoms: _143  and  _144
REMARK   62  A    between atoms: _146  and  _148
REMARK   63  A    between atoms: _148  and  _149
REMARK   64  A    between atoms: _152  and  _154
REMARK   65  A    between atoms: _154  and  _155
REMARK   66  A    between atoms: _154  and  _157
REMARK   67  A    between atoms: _157  and  _158
REMARK   68  A    between atoms: _158  and  _159
REMARK   69  A    between atoms: _159  and  _160
REMARK   70  A    between atoms: _160  and  _161
REMARK   71  A    between atoms: _166  and  _167
REMARK   72  A    between atoms: _172  and  _174
REMARK   73  A    between atoms: _174  and  _175
REMARK   74  A    between atoms: _174  and  _177
REMARK   75  A    between atoms: _177  and  _178
REMARK   76  A    between atoms: _183  and  _185
REMARK   77  A    between atoms: _185  and  _186
REMARK   78  A    between atoms: _185  and  _188
REMARK   79  A    between atoms: _188  and  _189
REMARK   80  A    between atoms: _189  and  _190
REMARK   81  A    between atoms: _192  and  _194
REMARK   82  A    between atoms: _194  and  _195
REMARK   83  A    between atoms: _194  and  _197
REMARK   84  A    between atoms: _197  and  _198
REMARK   85  A    between atoms: _201  and  _203
REMARK   86  A    between atoms: _203  and  _204
REMARK   87  A    between atoms: _203  and  _206
REMARK   88  A    between atoms: _206  and  _207
REMARK   89  A    between atoms: _207  and  _208
REMARK   90  A    between atoms: _208  and  _209
REMARK   91  A    between atoms: _218  and  _220
REMARK   92  A    between atoms: _220  and  _221
REMARK   93  A    between atoms: _220  and  _223
REMARK   94  A    between atoms: _223  and  _224
REMARK   95  A    between atoms: _226  and  _228
REMARK   96  A    between atoms: _228  and  _229
REMARK   97  A    between atoms: _228  and  _231
REMARK   98  A    between atoms: _231  and  _232
REMARK   99  A    between atoms: _232  and  _233
REMARK  100  A    between atoms: _236  and  _238
REMARK  101  A    between atoms: _238  and  _239
REMARK  102  A    between atoms: _238  and  _241
REMARK  103  A    between atoms: _241  and  _242
REMARK  104  A    between atoms: _244  and  _246
REMARK  105  A    between atoms: _246  and  _247
REMARK  106  A    between atoms: _246  and  _249
REMARK  107  A    between atoms: _249  and  _250
REMARK  108  A    between atoms: _253  and  _255
REMARK  109  A    between atoms: _255  and  _256
REMARK  110  A    between atoms: _255  and  _258
REMARK  111  A    between atoms: _258  and  _259
REMARK  112  A    between atoms: _265  and  _267
REMARK  113  A    between atoms: _267  and  _268
REMARK  114  A    between atoms: _267  and  _270
REMARK  115  A    between atoms: _270  and  _271
REMARK  116  A    between atoms: _271  and  _272
REMARK  117  A    between atoms: _272  and  _273
REMARK  118  A    between atoms: _273  and  _274
REMARK  119  A    between atoms: _278  and  _280
REMARK  120  A    between atoms: _280  and  _281
REMARK  121  A    between atoms: _280  and  _283
REMARK  122  A    between atoms: _283  and  _284
REMARK  123  A    between atoms: _289  and  _291
REMARK  124  A    between atoms: _291  and  _292
REMARK  125  A    between atoms: _291  and  _294
REMARK  126  A    between atoms: _294  and  _295
REMARK  127  A    between atoms: _298  and  _300
REMARK  128  A    between atoms: _300  and  _301
REMARK  129  A    between atoms: _300  and  _303
REMARK  130  A    between atoms: _303  and  _304
REMARK  131  A    between atoms: _304  and  _305
REMARK  132  A    between atoms: _308  and  _310
REMARK  133  A    between atoms: _310  and  _311
REMARK  134  A    between atoms: _310  and  _313
REMARK  135  A    between atoms: _313  and  _314
REMARK  136  A    between atoms: _317  and  _319
REMARK  137  A    between atoms: _319  and  _320
REMARK  138  A    between atoms: _319  and  _322
REMARK  139  A    between atoms: _322  and  _323
REMARK  140  A    between atoms: _323  and  _324
REMARK  141  A    between atoms: _327  and  _329
REMARK  142  A    between atoms: _329  and  _330
REMARK  143  A    between atoms: _329  and  _332
REMARK  144  A    between atoms: _332  and  _333
REMARK  145  A    between atoms: _336  and  _338
REMARK  146  A    between atoms: _338  and  _339
REMARK  147  A    between atoms: _338  and  _341
REMARK  148  A    between atoms: _341  and  _342
REMARK  149  A    between atoms: _345  and  _347
REMARK  150  A    between atoms: _347  and  _348
REMARK  151  A    between atoms: _351  and  _353
REMARK  152  A    between atoms: _353  and  _354
REMARK  153  A    between atoms: _353  and  _356
REMARK  154  A    between atoms: _356  and  _357
REMARK  155  A    between atoms: _360  and  _362
REMARK  156  A    between atoms: _362  and  _363
REMARK  157  A    between atoms: _362  and  _365
REMARK  158  A    between atoms: _365  and  _366
REMARK  159  A    between atoms: _369  and  _371
REMARK  160  A    between atoms: _371  and  _372
REMARK  161  A    between atoms: _371  and  _374
REMARK  162  A    between atoms: _374  and  _375
REMARK  163  A    between atoms: _375  and  _376
REMARK  164  A    between atoms: _376  and  _377
REMARK  165  A    between atoms: _386  and  _388
REMARK  166  A    between atoms: _388  and  _389
REMARK  167  A    between atoms: _388  and  _391
REMARK  168  A    between atoms: _391  and  _392
REMARK  169  A    between atoms: _392  and  _393
REMARK  170  A    between atoms: _398  and  _400
REMARK  171  A    between atoms: _400  and  _401
REMARK  172  A    between atoms: _400  and  _403
REMARK  173  A    between atoms: _403  and  _404
REMARK  174  A    between atoms: _404  and  _405
REMARK  175  A    between atoms: _410  and  _412
REMARK  176  A    between atoms: _412  and  _413
REMARK  177  A    between atoms: _412  and  _415
REMARK  178  A    between atoms: _415  and  _416
REMARK  179  A    between atoms: _426  and  _428
REMARK  180  A    between atoms: _428  and  _429
REMARK  181  A    between atoms: _428  and  _431
REMARK  182  A    between atoms: _431  and  _432
REMARK  183  A    between atoms: _435  and  _437
REMARK  184  A    between atoms: _437  and  _438
REMARK  185  A    between atoms: _437  and  _440
REMARK  186  A    between atoms: _440  and  _441
REMARK  187  A    between atoms: _444  and  _446
REMARK  188  A    between atoms: _446  and  _447
REMARK  189  A    between atoms: _446  and  _449
REMARK  190  A    between atoms: _449  and  _450
REMARK  191  A    between atoms: _453  and  _455
REMARK  192  A    between atoms: _455  and  _456
REMARK  193  A    between atoms: _455  and  _458
REMARK  194  A    between atoms: _458  and  _459
REMARK  195  A    between atoms: _459  and  _460
REMARK  196  A    between atoms: _460  and  _461
REMARK  197  A    between atoms: _461  and  _462
REMARK  198  A    between atoms: _466  and  _468
REMARK  199  A    between atoms: _468  and  _469
REMARK  200  A    between atoms: _468  and  _471
REMARK  201  A    between atoms: _471  and  _472
REMARK  202  A    between atoms: _472  and  _473
REMARK  203  A    between atoms: _473  and  _474
REMARK  204  A    between atoms: _483  and  _485
REMARK  205  A    between atoms: _485  and  _486
REMARK  206  A    between atoms: _485  and  _488
REMARK  207  A    between atoms: _491  and  _493
REMARK  208  A    between atoms: _493  and  _494
REMARK  209  A    between atoms: _493  and  _496
REMARK  210  A    between atoms: _496  and  _497
REMARK  211  A    between atoms: _497  and  _498
REMARK  212  A    between atoms: _501  and  _503
REMARK  213  A    between atoms: _503  and  _504
REMARK  214  A    between atoms: _503  and  _506
REMARK  215  A    between atoms: _508  and  _510
REMARK  216  A    between atoms: _510  and  _511
REMARK  217  A    between atoms: _510  and  _513
REMARK  218  A    between atoms: _516  and  _518
REMARK  219  A    between atoms: _518  and  _519
REMARK  220  A    between atoms: _518  and  _521
REMARK  221  A    between atoms: _521  and  _522
REMARK  222  A    between atoms: _524  and  _526
REMARK  223  A    between atoms: _526  and  _527
REMARK  224  A    between atoms: _526  and  _529
REMARK  225  A    between atoms: _529  and  _530
REMARK  226  A    between atoms: _533  and  _535
REMARK  227  A    between atoms: _535  and  _536
REMARK  228  A    between atoms: _535  and  _538
REMARK  229  A    between atoms: _538  and  _539
REMARK  230  A    between atoms: _539  and  _540
REMARK  231  A    between atoms: _540  and  _541
REMARK  232  A    between atoms: _550  and  _552
REMARK  233  A    between atoms: _552  and  _553
REMARK  234  A    between atoms: _552  and  _555
REMARK  235  A    between atoms: _555  and  _556
REMARK  236  A    between atoms: _561  and  _562
REMARK  237  A    between atoms: _564  and  _566
REMARK  238  A    between atoms: _566  and  _567
REMARK  239  A    between atoms: _566  and  _569
REMARK  240  A    between atoms: _569  and  _570
REMARK  241  A    between atoms: _570  and  _571
REMARK                            x       y       z     vdW  Elec       q    Type
REMARK                         _______ _______ _______ _____ _____    ______ ____
ROOT
ATOM      1  CG  TYR A   1       1.721 -14.816  23.009  0.00  0.00    -0.020 A 
ATOM      2  CD2 TYR A   1       0.622 -15.443  23.599  0.00  0.00    -0.001 A 
ATOM      3  CE2 TYR A   1      -0.656 -14.911  23.484  0.00  0.00    +0.036 A 
ATOM      4  CZ  TYR A   1      -0.834 -13.751  22.778  0.00  0.00    +0.134 A 
ATOM      5  CE1 TYR A   1       0.242 -13.115  22.179  0.00  0.00    +0.036 A 
ATOM      6  CD1 TYR A   1       1.506 -13.651  22.293  0.00  0.00    -0.001 A 
ENDROOT
BRANCH   4   7
ATOM      7  OH  TYR A   1      -2.100 -13.217  22.660  0.00  0.00    -0.506 OA
ATOM      8  HH  TYR A   1      -2.692 -13.871  22.210  0.00  0.00    +0.292 HD
ENDBRANCH   4   7
BRANCH   1   9
ATOM      9  CB  TYR A   1       3.096 -15.392  23.143  0.00  0.00    +0.051 C 
BRANCH   9  10
ATOM     10  CA  TYR A   1       3.956 -14.735  24.240  0.00  0.00    +0.137 C 
BRANCH  10  11
ATOM     11  N   TYR A   1       4.330 -13.384  23.854  0.00  0.00    -0.239 NA
ATOM     12  H   TYR A   1       4.909 -13.260  22.999  0.00  0.00    +0.142 HD
ENDBRANCH  10  11
BRANCH  10  13
ATOM     13  C   TYR A   1       5.200 -15.579  24.424  0.00  0.00    +0.224 C 
ATOM     14  O   TYR A   1       6.215 -15.361  23.758  0.00  0.00    -0.287 OA
ENDBRANCH  10  13
ENDBRANCH   9  10
ENDBRANCH   1   9
TORSDOF 5
REMARK  Name = ../refined-set-2016/2qm9/2qm9_pocket.pdb
REMARK  241 active torsions:
REMARK  status: ('A' for Active; 'I' for Inactive)
REMARK    1  A    between atoms: _1  and  _3
REMARK    2  A    between atoms: _3  and  _4
REMARK    3  A    between atoms: _3  and  _6
REMARK    4  A    between atoms: _6  and  _7
REMARK    5  A    between atoms: _10  and  _12
REMARK    6  A    between atoms: _12  and  _13
REMARK    7  A    between atoms: _12  and  _15
REMARK    8  A    between atoms: _15  and  _16
REMARK    9  A    between atoms: _18  and  _20
REMARK   10  A    between atoms: _20  and  _21
REMARK   11  A    between atoms: _20  and  _23
REMARK   12  A    between atoms: _23  and  _24
REMARK   13  A    between atoms: _30  and  _32
REMARK   14  A    between atoms: _32  and  _33
REMARK   15  A    between atoms: _32  and  _35
REMARK   16  A    between atoms: _35  and  _36
REMARK   17  A    between atoms: _41  and  _42
REMARK   18  A    between atoms: _44  and  _46
REMARK   19  A    between atoms: _46  and  _47
REMARK   20  A    between atoms: _46  and  _49
REMARK   21  A    between atoms: _49  and  _50
REMARK   22  A    between atoms: _50  and  _51
REMARK   23  A    between atoms: _53  and  _55
REMARK   24  A    between atoms: _55  and  _56
REMARK   25  A    between atoms: _55  and  _58
REMARK   26  A    between atoms: _58  and  _59
REMARK   27  A    between atoms: _59  and  _60
REMARK   28  A    between atoms: _60  and  _61
REMARK   29  A    between atoms: _61  and  _62
REMARK   30  A    between atoms: _66  and  _68
REMARK   31  A    between atoms: _68  and  _69
REMARK   32  A    between atoms: _68  and  _71
REMARK   33  A    between atoms: _74  and  _76
REMARK   34  A    between atoms: _76  and  _77
REMARK   35  A    between atoms: _79  and  _81
REMARK   36  A    between atoms: _81  and  _82
REMARK   37  A    between atoms: _81  and  _84
REMARK   38  A    between atoms: _87  and  _89
REMARK   39  A    between atoms: _89  and  _90
REMARK   40  A    between atoms: _92  and  _94
REMARK   41  A    between atoms: _94  and  _95
REMARK   42  A    between atoms: _94  and  _97
REMARK   43  A    between atoms: _97  and  _98
REMARK   44  A    between atoms: _101  and  _103
REMARK   45  A    between atoms: _103  and  _104
REMARK   46  A    between atoms: _103  and  _106
REMARK   47  A    between atoms: _106  and  _107
REMARK   48  A    between atoms: _107  and  _108
REMARK   49  A    between atoms: _108  and  _109
REMARK   50  A    between atoms: _118  and  _120
REMARK   51  A    between atoms: _120  and  _121
REMARK   52  A    between atoms: _120  and  _123
REMARK   53  A    between atoms: _126  and  _128
REMARK   54  A    between atoms: _128  and  _129
REMARK   55  A    between atoms: _132  and  _134
REMARK   56  A    between atoms: _134  and  _135
REMARK   57  A    between atoms: _137  and  _139
REMARK   58  A    between atoms: _139  and  _140
REMARK   59  A    between atoms: _139  and  _142
REMARK   60  A    between atoms: _142  and  _143
REMARK   61  A    between atoms: _143  and  _144
REMARK   62  A    between atoms: _146  and  _148
REMARK   63  A    between atoms: _148  and  _149
REMARK   64  A    between atoms: _152  and  _154
REMARK   65  A    between atoms: _154  and  _155
REMARK   66  A    between atoms: _154  and  _157
REMARK   67  A    between atoms: _157  and  _158
REMARK   68  A    between atoms: _158  and  _159
REMARK   69  A    between atoms: _159  and  _160
REMARK   70  A    between atoms: _160  and  _161
REMARK   71  A    between atoms: _166  and  _167
REMARK   72  A    between atoms: _172  and  _174
REMARK   73  A    between atoms: _174  and  _175
REMARK   74  A    between atoms: _174  and  _177
REMARK   75  A    between atoms: _177  and  _178
REMARK   76  A    between atoms: _183  and  _185
REMARK   77  A    between atoms: _185  and  _186
REMARK   78  A    between atoms: _185  and  _188
REMARK   79  A    between atoms: _188  and  _189
REMARK   80  A    between atoms: _189  and  _190
REMARK   81  A    between atoms: _192  and  _194
REMARK   82  A    between atoms: _194  and  _195
REMARK   83  A    between atoms: _194  and  _197
REMARK   84  A    between atoms: _197  and  _198
REMARK   85  A    between atoms: _201  and  _203
REMARK   86  A    between atoms: _203  and  _204
REMARK   87  A    between atoms: _203  and  _206
REMARK   88  A    between atoms: _206  and  _207
REMARK   89  A    between atoms: _207  and  _208
REMARK   90  A    between atoms: _208  and  _209
REMARK   91  A    between atoms: _218  and  _220
REMARK   92  A    between atoms: _220  and  _221
REMARK   93  A    between atoms: _220  and  _223
REMARK   94  A    between atoms: _223  and  _224
REMARK   95  A    between atoms: _226  and  _228
REMARK   96  A    between atoms: _228  and  _229
REMARK   97  A    between atoms: _228  and  _231
REMARK   98  A    between atoms: _231  and  _232
REMARK   99  A    between atoms: _232  and  _233
REMARK  100  A    between atoms: _236  and  _238
REMARK  101  A    between atoms: _238  and  _239
REMARK  102  A    between atoms: _238  and  _241
REMARK  103  A    between atoms: _241  and  _242
REMARK  104  A    between atoms: _244  and  _246
REMARK  105  A    between atoms: _246  and  _247
REMARK  106  A    between atoms: _246  and  _249
REMARK  107  A    between atoms: _249  and  _250
REMARK  108  A    between atoms: _253  and  _255
REMARK  109  A    between atoms: _255  and  _256
REMARK  110  A    between atoms: _255  and  _258
REMARK  111  A    between atoms: _258  and  _259
REMARK  112  A    between atoms: _265  and  _267
REMARK  113  A    between atoms: _267  and  _268
REMARK  114  A    between atoms: _267  and  _270
REMARK  115  A    between atoms: _270  and  _271
REMARK  116  A    between atoms: _271  and  _272
REMARK  117  A    between atoms: _272  and  _273
REMARK  118  A    between atoms: _273  and  _274
REMARK  119  A    between atoms: _278  and  _280
REMARK  120  A    between atoms: _280  and  _281
REMARK  121  A    between atoms: _280  and  _283
REMARK  122  A    between atoms: _283  and  _284
REMARK  123  A    between atoms: _289  and  _291
REMARK  124  A    between atoms: _291  and  _292
REMARK  125  A    between atoms: _291  and  _294
REMARK  126  A    between atoms: _294  and  _295
REMARK  127  A    between atoms: _298  and  _300
REMARK  128  A    between atoms: _300  and  _301
REMARK  129  A    between atoms: _300  and  _303
REMARK  130  A    between atoms: _303  and  _304
REMARK  131  A    between atoms: _304  and  _305
REMARK  132  A    between atoms: _308  and  _310
REMARK  133  A    between atoms: _310  and  _311
REMARK  134  A    between atoms: _310  and  _313
REMARK  135  A    between atoms: _313  and  _314
REMARK  136  A    between atoms: _317  and  _319
REMARK  137  A    between atoms: _319  and  _320
REMARK  138  A    between atoms: _319  and  _322
REMARK  139  A    between atoms: _322  and  _323
REMARK  140  A    between atoms: _323  and  _324
REMARK  141  A    between atoms: _327  and  _329
REMARK  142  A    between atoms: _329  and  _330
REMARK  143  A    between atoms: _329  and  _332
REMARK  144  A    between atoms: _332  and  _333
REMARK  145  A    between atoms: _336  and  _338
REMARK  146  A    between atoms: _338  and  _339
REMARK  147  A    between atoms: _338  and  _341
REMARK  148  A    between atoms: _341  and  _342
REMARK  149  A    between atoms: _345  and  _347
REMARK  150  A    between atoms: _347  and  _348
REMARK  151  A    between atoms: _351  and  _353
REMARK  152  A    between atoms: _353  and  _354
REMARK  153  A    between atoms: _353  and  _356
REMARK  154  A    between atoms: _356  and  _357
REMARK  155  A    between atoms: _360  and  _362
REMARK  156  A    between atoms: _362  and  _363
REMARK  157  A    between atoms: _362  and  _365
REMARK  158  A    between atoms: _365  and  _366
REMARK  159  A    between atoms: _369  and  _371
REMARK  160  A    between atoms: _371  and  _372
REMARK  161  A    between atoms: _371  and  _374
REMARK  162  A    between atoms: _374  and  _375
REMARK  163  A    between atoms: _375  and  _376
REMARK  164  A    between atoms: _376  and  _377
REMARK  165  A    between atoms: _386  and  _388
REMARK  166  A    between atoms: _388  and  _389
REMARK  167  A    between atoms: _388  and  _391
REMARK  168  A    between atoms: _391  and  _392
REMARK  169  A    between atoms: _392  and  _393
REMARK  170  A    between atoms: _398  and  _400
REMARK  171  A    between atoms: _400  and  _401
REMARK  172  A    between atoms: _400  and  _403
REMARK  173  A    between atoms: _403  and  _404
REMARK  174  A    between atoms: _404  and  _405
REMARK  175  A    between atoms: _410  and  _412
REMARK  176  A    between atoms: _412  and  _413
REMARK  177  A    between atoms: _412  and  _415
REMARK  178  A    between atoms: _415  and  _416
REMARK  179  A    between atoms: _426  and  _428
REMARK  180  A    between atoms: _428  and  _429
REMARK  181  A    between atoms: _428  and  _431
REMARK  182  A    between atoms: _431  and  _432
REMARK  183  A    between atoms: _435  and  _437
REMARK  184  A    between atoms: _437  and  _438
REMARK  185  A    between atoms: _437  and  _440
REMARK  186  A    between atoms: _440  and  _441
REMARK  187  A    between atoms: _444  and  _446
REMARK  188  A    between atoms: _446  and  _447
REMARK  189  A    between atoms: _446  and  _449
REMARK  190  A    between atoms: _449  and  _450
REMARK  191  A    between atoms: _453  and  _455
REMARK  192  A    between atoms: _455  and  _456
REMARK  193  A    between atoms: _455  and  _458
REMARK  194  A    between atoms: _458  and  _459
REMARK  195  A    between atoms: _459  and  _460
REMARK  196  A    between atoms: _460  and  _461
REMARK  197  A    between atoms: _461  and  _462
REMARK  198  A    between atoms: _466  and  _468
REMARK  199  A    between atoms: _468  and  _469
REMARK  200  A    between atoms: _468  and  _471
REMARK  201  A    between atoms: _471  and  _472
REMARK  202  A    between atoms: _472  and  _473
REMARK  203  A    between atoms: _473  and  _474
REMARK  204  A    between atoms: _483  and  _485
REMARK  205  A    between atoms: _485  and  _486
REMARK  206  A    between atoms: _485  and  _488
REMARK  207  A    between atoms: _491  and  _493
REMARK  208  A    between atoms: _493  and  _494
REMARK  209  A    between atoms: _493  and  _496
REMARK  210  A    between atoms: _496  and  _497
REMARK  211  A    between atoms: _497  and  _498
REMARK  212  A    between atoms: _501  and  _503
REMARK  213  A    between atoms: _503  and  _504
REMARK  214  A    between atoms: _503  and  _506
REMARK  215  A    between atoms: _508  and  _510
REMARK  216  A    between atoms: _510  and  _511
REMARK  217  A    between atoms: _510  and  _513
REMARK  218  A    between atoms: _516  and  _518
REMARK  219  A    between atoms: _518  and  _519
REMARK  220  A    between atoms: _518  and  _521
REMARK  221  A    between atoms: _521  and  _522
REMARK  222  A    between atoms: _524  and  _526
REMARK  223  A    between atoms: _526  and  _527
REMARK  224  A    between atoms: _526  and  _529
REMARK  225  A    between atoms: _529  and  _530
REMARK  226  A    between atoms: _533  and  _535
REMARK  227  A    between atoms: _535  and  _536
REMARK  228  A    between atoms: _535  and  _538
REMARK  229  A    between atoms: _538  and  _539
REMARK  230  A    between atoms: _539  and  _540
REMARK  231  A    between atoms: _540  and  _541
REMARK  232  A    between atoms: _550  and  _552
REMARK  233  A    between atoms: _552  and  _553
REMARK  234  A    between atoms: _552  and  _555
REMARK  235  A    between atoms: _555  and  _556
REMARK  236  A    between atoms: _561  and  _562
REMARK  237  A    between atoms: _564  and  _566
REMARK  238  A    between atoms: _566  and  _567
REMARK  239  A    between atoms: _566  and  _569
REMARK  240  A    between atoms: _569  and  _570
REMARK  241  A    between atoms: _570  and  _571
REMARK                            x       y       z     vdW  Elec       q    Type
REMARK                         _______ _______ _______ _____ _____    ______ ____
ROOT
ATOM      1  CA  GLU A   1     -14.977 -23.793  15.183  0.00  0.00    +0.134 C 
ENDROOT
BRANCH   1   2
ATOM      2  N   GLU A   1     -14.153 -24.770  15.878  0.00  0.00    -0.239 NA
ATOM      3  H   GLU A   1     -13.333 -25.170  15.379  0.00  0.00    +0.142 HD
ENDBRANCH   1   2
BRANCH   1   4
ATOM      4  C   GLU A   1     -14.837 -23.950  13.666  0.00  0.00    +0.224 C 
ATOM      5  O   GLU A   1     -13.726 -23.940  13.129  0.00  0.00    -0.287 OA
ENDBRANCH   1   4
BRANCH   1   6
ATOM      6  CB  GLU A   1     -14.600 -22.380  15.632  0.00  0.00    +0.037 C 
BRANCH   6   7
ATOM      7  CG  GLU A   1     -15.147 -21.270  14.745  0.00  0.00    +0.116 C 
BRANCH   7   8
ATOM      8  CD  GLU A   1     -14.777 -19.882  15.231  0.00  0.00    +0.365 C 
ATOM      9  OE2 GLU A   1     -13.845 -19.757  16.049  0.00  0.00    -0.246 OA
ATOM     10  OE1 GLU A   1     -15.418 -18.904  14.785  0.00  0.00    -0.246 OA
ENDBRANCH   7   8
ENDBRANCH   6   7
ENDBRANCH   1   6
TORSDOF 5
REMARK  Name = ../refined-set-2016/2qm9/2qm9_pocket.pdb
REMARK  241 active torsions:
REMARK  status: ('A' for Active; 'I' for Inactive)
REMARK    1  A    between atoms: _1  and  _3
REMARK    2  A    between atoms: _3  and  _4
REMARK    3  A    between atoms: _3  and  _6
REMARK    4  A    between atoms: _6  and  _7
REMARK    5  A    between atoms: _10  and  _12
REMARK    6  A    between atoms: _12  and  _13
REMARK    7  A    between atoms: _12  and  _15
REMARK    8  A    between atoms: _15  and  _16
REMARK    9  A    between atoms: _18  and  _20
REMARK   10  A    between atoms: _20  and  _21
REMARK   11  A    between atoms: _20  and  _23
REMARK   12  A    between atoms: _23  and  _24
REMARK   13  A    between atoms: _30  and  _32
REMARK   14  A    between atoms: _32  and  _33
REMARK   15  A    between atoms: _32  and  _35
REMARK   16  A    between atoms: _35  and  _36
REMARK   17  A    between atoms: _41  and  _42
REMARK   18  A    between atoms: _44  and  _46
REMARK   19  A    between atoms: _46  and  _47
REMARK   20  A    between atoms: _46  and  _49
REMARK   21  A    between atoms: _49  and  _50
REMARK   22  A    between atoms: _50  and  _51
REMARK   23  A    between atoms: _53  and  _55
REMARK   24  A    between atoms: _55  and  _56
REMARK   25  A    between atoms: _55  and  _58
REMARK   26  A    between atoms: _58  and  _59
REMARK   27  A    between atoms: _59  and  _60
REMARK   28  A    between atoms: _60  and  _61
REMARK   29  A    between atoms: _61  and  _62
REMARK   30  A    between atoms: _66  and  _68
REMARK   31  A    between atoms: _68  and  _69
REMARK   32  A    between atoms: _68  and  _71
REMARK   33  A    between atoms: _74  and  _76
REMARK   34  A    between atoms: _76  and  _77
REMARK   35  A    between atoms: _79  and  _81
REMARK   36  A    between atoms: _81  and  _82
REMARK   37  A    between atoms: _81  and  _84
REMARK   38  A    between atoms: _87  and  _89
REMARK   39  A    between atoms: _89  and  _90
REMARK   40  A    between atoms: _92  and  _94
REMARK   41  A    between atoms: _94  and  _95
REMARK   42  A    between atoms: _94  and  _97
REMARK   43  A    between atoms: _97  and  _98
REMARK   44  A    between atoms: _101  and  _103
REMARK   45  A    between atoms: _103  and  _104
REMARK   46  A    between atoms: _103  and  _106
REMARK   47  A    between atoms: _106  and  _107
REMARK   48  A    between atoms: _107  and  _108
REMARK   49  A    between atoms: _108  and  _109
REMARK   50  A    between atoms: _118  and  _120
REMARK   51  A    between atoms: _120  and  _121
REMARK   52  A    between atoms: _120  and  _123
REMARK   53  A    between atoms: _126  and  _128
REMARK   54  A    between atoms: _128  and  _129
REMARK   55  A    between atoms: _132  and  _134
REMARK   56  A    between atoms: _134  and  _135
REMARK   57  A    between atoms: _137  and  _139
REMARK   58  A    between atoms: _139  and  _140
REMARK   59  A    between atoms: _139  and  _142
REMARK   60  A    between atoms: _142  and  _143
REMARK   61  A    between atoms: _143  and  _144
REMARK   62  A    between atoms: _146  and  _148
REMARK   63  A    between atoms: _148  and  _149
REMARK   64  A    between atoms: _152  and  _154
REMARK   65  A    between atoms: _154  and  _155
REMARK   66  A    between atoms: _154  and  _157
REMARK   67  A    between atoms: _157  and  _158
REMARK   68  A    between atoms: _158  and  _159
REMARK   69  A    between atoms: _159  and  _160
REMARK   70  A    between atoms: _160  and  _161
REMARK   71  A    between atoms: _166  and  _167
REMARK   72  A    between atoms: _172  and  _174
REMARK   73  A    between atoms: _174  and  _175
REMARK   74  A    between atoms: _174  and  _177
REMARK   75  A    between atoms: _177  and  _178
REMARK   76  A    between atoms: _183  and  _185
REMARK   77  A    between atoms: _185  and  _186
REMARK   78  A    between atoms: _185  and  _188
REMARK   79  A    between atoms: _188  and  _189
REMARK   80  A    between atoms: _189  and  _190
REMARK   81  A    between atoms: _192  and  _194
REMARK   82  A    between atoms: _194  and  _195
REMARK   83  A    between atoms: _194  and  _197
REMARK   84  A    between atoms: _197  and  _198
REMARK   85  A    between atoms: _201  and  _203
REMARK   86  A    between atoms: _203  and  _204
REMARK   87  A    between atoms: _203  and  _206
REMARK   88  A    between atoms: _206  and  _207
REMARK   89  A    between atoms: _207  and  _208
REMARK   90  A    between atoms: _208  and  _209
REMARK   91  A    between atoms: _218  and  _220
REMARK   92  A    between atoms: _220  and  _221
REMARK   93  A    between atoms: _220  and  _223
REMARK   94  A    between atoms: _223  and  _224
REMARK   95  A    between atoms: _226  and  _228
REMARK   96  A    between atoms: _228  and  _229
REMARK   97  A    between atoms: _228  and  _231
REMARK   98  A    between atoms: _231  and  _232
REMARK   99  A    between atoms: _232  and  _233
REMARK  100  A    between atoms: _236  and  _238
REMARK  101  A    between atoms: _238  and  _239
REMARK  102  A    between atoms: _238  and  _241
REMARK  103  A    between atoms: _241  and  _242
REMARK  104  A    between atoms: _244  and  _246
REMARK  105  A    between atoms: _246  and  _247
REMARK  106  A    between atoms: _246  and  _249
REMARK  107  A    between atoms: _249  and  _250
REMARK  108  A    between atoms: _253  and  _255
REMARK  109  A    between atoms: _255  and  _256
REMARK  110  A    between atoms: _255  and  _258
REMARK  111  A    between atoms: _258  and  _259
REMARK  112  A    between atoms: _265  and  _267
REMARK  113  A    between atoms: _267  and  _268
REMARK  114  A    between atoms: _267  and  _270
REMARK  115  A    between atoms: _270  and  _271
REMARK  116  A    between atoms: _271  and  _272
REMARK  117  A    between atoms: _272  and  _273
REMARK  118  A    between atoms: _273  and  _274
REMARK  119  A    between atoms: _278  and  _280
REMARK  120  A    between atoms: _280  and  _281
REMARK  121  A    between atoms: _280  and  _283
REMARK  122  A    between atoms: _283  and  _284
REMARK  123  A    between atoms: _289  and  _291
REMARK  124  A    between atoms: _291  and  _292
REMARK  125  A    between atoms: _291  and  _294
REMARK  126  A    between atoms: _294  and  _295
REMARK  127  A    between atoms: _298  and  _300
REMARK  128  A    between atoms: _300  and  _301
REMARK  129  A    between atoms: _300  and  _303
REMARK  130  A    between atoms: _303  and  _304
REMARK  131  A    between atoms: _304  and  _305
REMARK  132  A    between atoms: _308  and  _310
REMARK  133  A    between atoms: _310  and  _311
REMARK  134  A    between atoms: _310  and  _313
REMARK  135  A    between atoms: _313  and  _314
REMARK  136  A    between atoms: _317  and  _319
REMARK  137  A    between atoms: _319  and  _320
REMARK  138  A    between atoms: _319  and  _322
REMARK  139  A    between atoms: _322  and  _323
REMARK  140  A    between atoms: _323  and  _324
REMARK  141  A    between atoms: _327  and  _329
REMARK  142  A    between atoms: _329  and  _330
REMARK  143  A    between atoms: _329  and  _332
REMARK  144  A    between atoms: _332  and  _333
REMARK  145  A    between atoms: _336  and  _338
REMARK  146  A    between atoms: _338  and  _339
REMARK  147  A    between atoms: _338  and  _341
REMARK  148  A    between atoms: _341  and  _342
REMARK  149  A    between atoms: _345  and  _347
REMARK  150  A    between atoms: _347  and  _348
REMARK  151  A    between atoms: _351  and  _353
REMARK  152  A    between atoms: _353  and  _354
REMARK  153  A    between atoms: _353  and  _356
REMARK  154  A    between atoms: _356  and  _357
REMARK  155  A    between atoms: _360  and  _362
REMARK  156  A    between atoms: _362  and  _363
REMARK  157  A    between atoms: _362  and  _365
REMARK  158  A    between atoms: _365  and  _366
REMARK  159  A    between atoms: _369  and  _371
REMARK  160  A    between atoms: _371  and  _372
REMARK  161  A    between atoms: _371  and  _374
REMARK  162  A    between atoms: _374  and  _375
REMARK  163  A    between atoms: _375  and  _376
REMARK  164  A    between atoms: _376  and  _377
REMARK  165  A    between atoms: _386  and  _388
REMARK  166  A    between atoms: _388  and  _389
REMARK  167  A    between atoms: _388  and  _391
REMARK  168  A    between atoms: _391  and  _392
REMARK  169  A    between atoms: _392  and  _393
REMARK  170  A    between atoms: _398  and  _400
REMARK  171  A    between atoms: _400  and  _401
REMARK  172  A    between atoms: _400  and  _403
REMARK  173  A    between atoms: _403  and  _404
REMARK  174  A    between atoms: _404  and  _405
REMARK  175  A    between atoms: _410  and  _412
REMARK  176  A    between atoms: _412  and  _413
REMARK  177  A    between atoms: _412  and  _415
REMARK  178  A    between atoms: _415  and  _416
REMARK  179  A    between atoms: _426  and  _428
REMARK  180  A    between atoms: _428  and  _429
REMARK  181  A    between atoms: _428  and  _431
REMARK  182  A    between atoms: _431  and  _432
REMARK  183  A    between atoms: _435  and  _437
REMARK  184  A    between atoms: _437  and  _438
REMARK  185  A    between atoms: _437  and  _440
REMARK  186  A    between atoms: _440  and  _441
REMARK  187  A    between atoms: _444  and  _446
REMARK  188  A    between atoms: _446  and  _447
REMARK  189  A    between atoms: _446  and  _449
REMARK  190  A    between atoms: _449  and  _450
REMARK  191  A    between atoms: _453  and  _455
REMARK  192  A    between atoms: _455  and  _456
REMARK  193  A    between atoms: _455  and  _458
REMARK  194  A    between atoms: _458  and  _459
REMARK  195  A    between atoms: _459  and  _460
REMARK  196  A    between atoms: _460  and  _461
REMARK  197  A    between atoms: _461  and  _462
REMARK  198  A    between atoms: _466  and  _468
REMARK  199  A    between atoms: _468  and  _469
REMARK  200  A    between atoms: _468  and  _471
REMARK  201  A    between atoms: _471  and  _472
REMARK  202  A    between atoms: _472  and  _473
REMARK  203  A    between atoms: _473  and  _474
REMARK  204  A    between atoms: _483  and  _485
REMARK  205  A    between atoms: _485  and  _486
REMARK  206  A    between atoms: _485  and  _488
REMARK  207  A    between atoms: _491  and  _493
REMARK  208  A    between atoms: _493  and  _494
REMARK  209  A    between atoms: _493  and  _496
REMARK  210  A    between atoms: _496  and  _497
REMARK  211  A    between atoms: _497  and  _498
REMARK  212  A    between atoms: _501  and  _503
REMARK  213  A    between atoms: _503  and  _504
REMARK  214  A    between atoms: _503  and  _506
REMARK  215  A    between atoms: _508  and  _510
REMARK  216  A    between atoms: _510  and  _511
REMARK  217  A    between atoms: _510  and  _513
REMARK  218  A    between atoms: _516  and  _518
REMARK  219  A    between atoms: _518  and  _519
REMARK  220  A    between atoms: _518  and  _521
REMARK  221  A    between atoms: _521  and  _522
REMARK  222  A    between atoms: _524  and  _526
REMARK  223  A    between atoms: _526  and  _527
REMARK  224  A    between atoms: _526  and  _529
REMARK  225  A    between atoms: _529  and  _530
REMARK  226  A    between atoms: _533  and  _535
REMARK  227  A    between atoms: _535  and  _536
REMARK  228  A    between atoms: _535  and  _538
REMARK  229  A    between atoms: _538  and  _539
REMARK  230  A    between atoms: _539  and  _540
REMARK  231  A    between atoms: _540  and  _541
REMARK  232  A    between atoms: _550  and  _552
REMARK  233  A    between atoms: _552  and  _553
REMARK  234  A    between atoms: _552  and  _555
REMARK  235  A    between atoms: _555  and  _556
REMARK  236  A    between atoms: _561  and  _562
REMARK  237  A    between atoms: _564  and  _566
REMARK  238  A    between atoms: _566  and  _567
REMARK  239  A    between atoms: _566  and  _569
REMARK  240  A    between atoms: _569  and  _570
REMARK  241  A    between atoms: _570  and  _571
REMARK                            x       y       z     vdW  Elec       q    Type
REMARK                         _______ _______ _______ _____ _____    ______ ____
ROOT
ATOM      1  O   HOH     1     -17.472  -3.819  20.651  0.00  0.00    +0.000 OA
ENDROOT
TORSDOF 0
REMARK  Name = ../refined-set-2016/2qm9/2qm9_pocket.pdb
REMARK  241 active torsions:
REMARK  status: ('A' for Active; 'I' for Inactive)
REMARK    1  A    between atoms: _1  and  _3
REMARK    2  A    between atoms: _3  and  _4
REMARK    3  A    between atoms: _3  and  _6
REMARK    4  A    between atoms: _6  and  _7
REMARK    5  A    between atoms: _10  and  _12
REMARK    6  A    between atoms: _12  and  _13
REMARK    7  A    between atoms: _12  and  _15
REMARK    8  A    between atoms: _15  and  _16
REMARK    9  A    between atoms: _18  and  _20
REMARK   10  A    between atoms: _20  and  _21
REMARK   11  A    between atoms: _20  and  _23
REMARK   12  A    between atoms: _23  and  _24
REMARK   13  A    between atoms: _30  and  _32
REMARK   14  A    between atoms: _32  and  _33
REMARK   15  A    between atoms: _32  and  _35
REMARK   16  A    between atoms: _35  and  _36
REMARK   17  A    between atoms: _41  and  _42
REMARK   18  A    between atoms: _44  and  _46
REMARK   19  A    between atoms: _46  and  _47
REMARK   20  A    between atoms: _46  and  _49
REMARK   21  A    between atoms: _49  and  _50
REMARK   22  A    between atoms: _50  and  _51
REMARK   23  A    between atoms: _53  and  _55
REMARK   24  A    between atoms: _55  and  _56
REMARK   25  A    between atoms: _55  and  _58
REMARK   26  A    between atoms: _58  and  _59
REMARK   27  A    between atoms: _59  and  _60
REMARK   28  A    between atoms: _60  and  _61
REMARK   29  A    between atoms: _61  and  _62
REMARK   30  A    between atoms: _66  and  _68
REMARK   31  A    between atoms: _68  and  _69
REMARK   32  A    between atoms: _68  and  _71
REMARK   33  A    between atoms: _74  and  _76
REMARK   34  A    between atoms: _76  and  _77
REMARK   35  A    between atoms: _79  and  _81
REMARK   36  A    between atoms: _81  and  _82
REMARK   37  A    between atoms: _81  and  _84
REMARK   38  A    between atoms: _87  and  _89
REMARK   39  A    between atoms: _89  and  _90
REMARK   40  A    between atoms: _92  and  _94
REMARK   41  A    between atoms: _94  and  _95
REMARK   42  A    between atoms: _94  and  _97
REMARK   43  A    between atoms: _97  and  _98
REMARK   44  A    between atoms: _101  and  _103
REMARK   45  A    between atoms: _103  and  _104
REMARK   46  A    between atoms: _103  and  _106
REMARK   47  A    between atoms: _106  and  _107
REMARK   48  A    between atoms: _107  and  _108
REMARK   49  A    between atoms: _108  and  _109
REMARK   50  A    between atoms: _118  and  _120
REMARK   51  A    between atoms: _120  and  _121
REMARK   52  A    between atoms: _120  and  _123
REMARK   53  A    between atoms: _126  and  _128
REMARK   54  A    between atoms: _128  and  _129
REMARK   55  A    between atoms: _132  and  _134
REMARK   56  A    between atoms: _134  and  _135
REMARK   57  A    between atoms: _137  and  _139
REMARK   58  A    between atoms: _139  and  _140
REMARK   59  A    between atoms: _139  and  _142
REMARK   60  A    between atoms: _142  and  _143
REMARK   61  A    between atoms: _143  and  _144
REMARK   62  A    between atoms: _146  and  _148
REMARK   63  A    between atoms: _148  and  _149
REMARK   64  A    between atoms: _152  and  _154
REMARK   65  A    between atoms: _154  and  _155
REMARK   66  A    between atoms: _154  and  _157
REMARK   67  A    between atoms: _157  and  _158
REMARK   68  A    between atoms: _158  and  _159
REMARK   69  A    between atoms: _159  and  _160
REMARK   70  A    between atoms: _160  and  _161
REMARK   71  A    between atoms: _166  and  _167
REMARK   72  A    between atoms: _172  and  _174
REMARK   73  A    between atoms: _174  and  _175
REMARK   74  A    between atoms: _174  and  _177
REMARK   75  A    between atoms: _177  and  _178
REMARK   76  A    between atoms: _183  and  _185
REMARK   77  A    between atoms: _185  and  _186
REMARK   78  A    between atoms: _185  and  _188
REMARK   79  A    between atoms: _188  and  _189
REMARK   80  A    between atoms: _189  and  _190
REMARK   81  A    between atoms: _192  and  _194
REMARK   82  A    between atoms: _194  and  _195
REMARK   83  A    between atoms: _194  and  _197
REMARK   84  A    between atoms: _197  and  _198
REMARK   85  A    between atoms: _201  and  _203
REMARK   86  A    between atoms: _203  and  _204
REMARK   87  A    between atoms: _203  and  _206
REMARK   88  A    between atoms: _206  and  _207
REMARK   89  A    between atoms: _207  and  _208
REMARK   90  A    between atoms: _208  and  _209
REMARK   91  A    between atoms: _218  and  _220
REMARK   92  A    between atoms: _220  and  _221
REMARK   93  A    between atoms: _220  and  _223
REMARK   94  A    between atoms: _223  and  _224
REMARK   95  A    between atoms: _226  and  _228
REMARK   96  A    between atoms: _228  and  _229
REMARK   97  A    between atoms: _228  and  _231
REMARK   98  A    between atoms: _231  and  _232
REMARK   99  A    between atoms: _232  and  _233
REMARK  100  A    between atoms: _236  and  _238
REMARK  101  A    between atoms: _238  and  _239
REMARK  102  A    between atoms: _238  and  _241
REMARK  103  A    between atoms: _241  and  _242
REMARK  104  A    between atoms: _244  and  _246
REMARK  105  A    between atoms: _246  and  _247
REMARK  106  A    between atoms: _246  and  _249
REMARK  107  A    between atoms: _249  and  _250
REMARK  108  A    between atoms: _253  and  _255
REMARK  109  A    between atoms: _255  and  _256
REMARK  110  A    between atoms: _255  and  _258
REMARK  111  A    between atoms: _258  and  _259
REMARK  112  A    between atoms: _265  and  _267
REMARK  113  A    between atoms: _267  and  _268
REMARK  114  A    between atoms: _267  and  _270
REMARK  115  A    between atoms: _270  and  _271
REMARK  116  A    between atoms: _271  and  _272
REMARK  117  A    between atoms: _272  and  _273
REMARK  118  A    between atoms: _273  and  _274
REMARK  119  A    between atoms: _278  and  _280
REMARK  120  A    between atoms: _280  and  _281
REMARK  121  A    between atoms: _280  and  _283
REMARK  122  A    between atoms: _283  and  _284
REMARK  123  A    between atoms: _289  and  _291
REMARK  124  A    between atoms: _291  and  _292
REMARK  125  A    between atoms: _291  and  _294
REMARK  126  A    between atoms: _294  and  _295
REMARK  127  A    between atoms: _298  and  _300
REMARK  128  A    between atoms: _300  and  _301
REMARK  129  A    between atoms: _300  and  _303
REMARK  130  A    between atoms: _303  and  _304
REMARK  131  A    between atoms: _304  and  _305
REMARK  132  A    between atoms: _308  and  _310
REMARK  133  A    between atoms: _310  and  _311
REMARK  134  A    between atoms: _310  and  _313
REMARK  135  A    between atoms: _313  and  _314
REMARK  136  A    between atoms: _317  and  _319
REMARK  137  A    between atoms: _319  and  _320
REMARK  138  A    between atoms: _319  and  _322
REMARK  139  A    between atoms: _322  and  _323
REMARK  140  A    between atoms: _323  and  _324
REMARK  141  A    between atoms: _327  and  _329
REMARK  142  A    between atoms: _329  and  _330
REMARK  143  A    between atoms: _329  and  _332
REMARK  144  A    between atoms: _332  and  _333
REMARK  145  A    between atoms: _336  and  _338
REMARK  146  A    between atoms: _338  and  _339
REMARK  147  A    between atoms: _338  and  _341
REMARK  148  A    between atoms: _341  and  _342
REMARK  149  A    between atoms: _345  and  _347
REMARK  150  A    between atoms: _347  and  _348
REMARK  151  A    between atoms: _351  and  _353
REMARK  152  A    between atoms: _353  and  _354
REMARK  153  A    between atoms: _353  and  _356
REMARK  154  A    between atoms: _356  and  _357
REMARK  155  A    between atoms: _360  and  _362
REMARK  156  A    between atoms: _362  and  _363
REMARK  157  A    between atoms: _362  and  _365
REMARK  158  A    between atoms: _365  and  _366
REMARK  159  A    between atoms: _369  and  _371
REMARK  160  A    between atoms: _371  and  _372
REMARK  161  A    between atoms: _371  and  _374
REMARK  162  A    between atoms: _374  and  _375
REMARK  163  A    between atoms: _375  and  _376
REMARK  164  A    between atoms: _376  and  _377
REMARK  165  A    between atoms: _386  and  _388
REMARK  166  A    between atoms: _388  and  _389
REMARK  167  A    between atoms: _388  and  _391
REMARK  168  A    between atoms: _391  and  _392
REMARK  169  A    between atoms: _392  and  _393
REMARK  170  A    between atoms: _398  and  _400
REMARK  171  A    between atoms: _400  and  _401
REMARK  172  A    between atoms: _400  and  _403
REMARK  173  A    between atoms: _403  and  _404
REMARK  174  A    between atoms: _404  and  _405
REMARK  175  A    between atoms: _410  and  _412
REMARK  176  A    between atoms: _412  and  _413
REMARK  177  A    between atoms: _412  and  _415
REMARK  178  A    between atoms: _415  and  _416
REMARK  179  A    between atoms: _426  and  _428
REMARK  180  A    between atoms: _428  and  _429
REMARK  181  A    between atoms: _428  and  _431
REMARK  182  A    between atoms: _431  and  _432
REMARK  183  A    between atoms: _435  and  _437
REMARK  184  A    between atoms: _437  and  _438
REMARK  185  A    between atoms: _437  and  _440
REMARK  186  A    between atoms: _440  and  _441
REMARK  187  A    between atoms: _444  and  _446
REMARK  188  A    between atoms: _446  and  _447
REMARK  189  A    between atoms: _446  and  _449
REMARK  190  A    between atoms: _449  and  _450
REMARK  191  A    between atoms: _453  and  _455
REMARK  192  A    between atoms: _455  and  _456
REMARK  193  A    between atoms: _455  and  _458
REMARK  194  A    between atoms: _458  and  _459
REMARK  195  A    between atoms: _459  and  _460
REMARK  196  A    between atoms: _460  and  _461
REMARK  197  A    between atoms: _461  and  _462
REMARK  198  A    between atoms: _466  and  _468
REMARK  199  A    between atoms: _468  and  _469
REMARK  200  A    between atoms: _468  and  _471
REMARK  201  A    between atoms: _471  and  _472
REMARK  202  A    between atoms: _472  and  _473
REMARK  203  A    between atoms: _473  and  _474
REMARK  204  A    between atoms: _483  and  _485
REMARK  205  A    between atoms: _485  and  _486
REMARK  206  A    between atoms: _485  and  _488
REMARK  207  A    between atoms: _491  and  _493
REMARK  208  A    between atoms: _493  and  _494
REMARK  209  A    between atoms: _493  and  _496
REMARK  210  A    between atoms: _496  and  _497
REMARK  211  A    between atoms: _497  and  _498
REMARK  212  A    between atoms: _501  and  _503
REMARK  213  A    between atoms: _503  and  _504
REMARK  214  A    between atoms: _503  and  _506
REMARK  215  A    between atoms: _508  and  _510
REMARK  216  A    between atoms: _510  and  _511
REMARK  217  A    between atoms: _510  and  _513
REMARK  218  A    between atoms: _516  and  _518
REMARK  219  A    between atoms: _518  and  _519
REMARK  220  A    between atoms: _518  and  _521
REMARK  221  A    between atoms: _521  and  _522
REMARK  222  A    between atoms: _524  and  _526
REMARK  223  A    between atoms: _526  and  _527
REMARK  224  A    between atoms: _526  and  _529
REMARK  225  A    between atoms: _529  and  _530
REMARK  226  A    between atoms: _533  and  _535
REMARK  227  A    between atoms: _535  and  _536
REMARK  228  A    between atoms: _535  and  _538
REMARK  229  A    between atoms: _538  and  _539
REMARK  230  A    between atoms: _539  and  _540
REMARK  231  A    between atoms: _540  and  _541
REMARK  232  A    between atoms: _550  and  _552
REMARK  233  A    between atoms: _552  and  _553
REMARK  234  A    between atoms: _552  and  _555
REMARK  235  A    between atoms: _555  and  _556
REMARK  236  A    between atoms: _561  and  _562
REMARK  237  A    between atoms: _564  and  _566
REMARK  238  A    between atoms: _566  and  _567
REMARK  239  A    between atoms: _566  and  _569
REMARK  240  A    between atoms: _569  and  _570
REMARK  241  A    between atoms: _570  and  _571
REMARK                            x       y       z     vdW  Elec       q    Type
REMARK                         _______ _______ _______ _____ _____    ______ ____
ROOT
ATOM      1  O   HOH     1      -8.742 -10.352  15.420  0.00  0.00    +0.000 OA
ENDROOT
TORSDOF 0
REMARK  Name = ../refined-set-2016/2qm9/2qm9_pocket.pdb
REMARK  241 active torsions:
REMARK  status: ('A' for Active; 'I' for Inactive)
REMARK    1  A    between atoms: _1  and  _3
REMARK    2  A    between atoms: _3  and  _4
REMARK    3  A    between atoms: _3  and  _6
REMARK    4  A    between atoms: _6  and  _7
REMARK    5  A    between atoms: _10  and  _12
REMARK    6  A    between atoms: _12  and  _13
REMARK    7  A    between atoms: _12  and  _15
REMARK    8  A    between atoms: _15  and  _16
REMARK    9  A    between atoms: _18  and  _20
REMARK   10  A    between atoms: _20  and  _21
REMARK   11  A    between atoms: _20  and  _23
REMARK   12  A    between atoms: _23  and  _24
REMARK   13  A    between atoms: _30  and  _32
REMARK   14  A    between atoms: _32  and  _33
REMARK   15  A    between atoms: _32  and  _35
REMARK   16  A    between atoms: _35  and  _36
REMARK   17  A    between atoms: _41  and  _42
REMARK   18  A    between atoms: _44  and  _46
REMARK   19  A    between atoms: _46  and  _47
REMARK   20  A    between atoms: _46  and  _49
REMARK   21  A    between atoms: _49  and  _50
REMARK   22  A    between atoms: _50  and  _51
REMARK   23  A    between atoms: _53  and  _55
REMARK   24  A    between atoms: _55  and  _56
REMARK   25  A    between atoms: _55  and  _58
REMARK   26  A    between atoms: _58  and  _59
REMARK   27  A    between atoms: _59  and  _60
REMARK   28  A    between atoms: _60  and  _61
REMARK   29  A    between atoms: _61  and  _62
REMARK   30  A    between atoms: _66  and  _68
REMARK   31  A    between atoms: _68  and  _69
REMARK   32  A    between atoms: _68  and  _71
REMARK   33  A    between atoms: _74  and  _76
REMARK   34  A    between atoms: _76  and  _77
REMARK   35  A    between atoms: _79  and  _81
REMARK   36  A    between atoms: _81  and  _82
REMARK   37  A    between atoms: _81  and  _84
REMARK   38  A    between atoms: _87  and  _89
REMARK   39  A    between atoms: _89  and  _90
REMARK   40  A    between atoms: _92  and  _94
REMARK   41  A    between atoms: _94  and  _95
REMARK   42  A    between atoms: _94  and  _97
REMARK   43  A    between atoms: _97  and  _98
REMARK   44  A    between atoms: _101  and  _103
REMARK   45  A    between atoms: _103  and  _104
REMARK   46  A    between atoms: _103  and  _106
REMARK   47  A    between atoms: _106  and  _107
REMARK   48  A    between atoms: _107  and  _108
REMARK   49  A    between atoms: _108  and  _109
REMARK   50  A    between atoms: _118  and  _120
REMARK   51  A    between atoms: _120  and  _121
REMARK   52  A    between atoms: _120  and  _123
REMARK   53  A    between atoms: _126  and  _128
REMARK   54  A    between atoms: _128  and  _129
REMARK   55  A    between atoms: _132  and  _134
REMARK   56  A    between atoms: _134  and  _135
REMARK   57  A    between atoms: _137  and  _139
REMARK   58  A    between atoms: _139  and  _140
REMARK   59  A    between atoms: _139  and  _142
REMARK   60  A    between atoms: _142  and  _143
REMARK   61  A    between atoms: _143  and  _144
REMARK   62  A    between atoms: _146  and  _148
REMARK   63  A    between atoms: _148  and  _149
REMARK   64  A    between atoms: _152  and  _154
REMARK   65  A    between atoms: _154  and  _155
REMARK   66  A    between atoms: _154  and  _157
REMARK   67  A    between atoms: _157  and  _158
REMARK   68  A    between atoms: _158  and  _159
REMARK   69  A    between atoms: _159  and  _160
REMARK   70  A    between atoms: _160  and  _161
REMARK   71  A    between atoms: _166  and  _167
REMARK   72  A    between atoms: _172  and  _174
REMARK   73  A    between atoms: _174  and  _175
REMARK   74  A    between atoms: _174  and  _177
REMARK   75  A    between atoms: _177  and  _178
REMARK   76  A    between atoms: _183  and  _185
REMARK   77  A    between atoms: _185  and  _186
REMARK   78  A    between atoms: _185  and  _188
REMARK   79  A    between atoms: _188  and  _189
REMARK   80  A    between atoms: _189  and  _190
REMARK   81  A    between atoms: _192  and  _194
REMARK   82  A    between atoms: _194  and  _195
REMARK   83  A    between atoms: _194  and  _197
REMARK   84  A    between atoms: _197  and  _198
REMARK   85  A    between atoms: _201  and  _203
REMARK   86  A    between atoms: _203  and  _204
REMARK   87  A    between atoms: _203  and  _206
REMARK   88  A    between atoms: _206  and  _207
REMARK   89  A    between atoms: _207  and  _208
REMARK   90  A    between atoms: _208  and  _209
REMARK   91  A    between atoms: _218  and  _220
REMARK   92  A    between atoms: _220  and  _221
REMARK   93  A    between atoms: _220  and  _223
REMARK   94  A    between atoms: _223  and  _224
REMARK   95  A    between atoms: _226  and  _228
REMARK   96  A    between atoms: _228  and  _229
REMARK   97  A    between atoms: _228  and  _231
REMARK   98  A    between atoms: _231  and  _232
REMARK   99  A    between atoms: _232  and  _233
REMARK  100  A    between atoms: _236  and  _238
REMARK  101  A    between atoms: _238  and  _239
REMARK  102  A    between atoms: _238  and  _241
REMARK  103  A    between atoms: _241  and  _242
REMARK  104  A    between atoms: _244  and  _246
REMARK  105  A    between atoms: _246  and  _247
REMARK  106  A    between atoms: _246  and  _249
REMARK  107  A    between atoms: _249  and  _250
REMARK  108  A    between atoms: _253  and  _255
REMARK  109  A    between atoms: _255  and  _256
REMARK  110  A    between atoms: _255  and  _258
REMARK  111  A    between atoms: _258  and  _259
REMARK  112  A    between atoms: _265  and  _267
REMARK  113  A    between atoms: _267  and  _268
REMARK  114  A    between atoms: _267  and  _270
REMARK  115  A    between atoms: _270  and  _271
REMARK  116  A    between atoms: _271  and  _272
REMARK  117  A    between atoms: _272  and  _273
REMARK  118  A    between atoms: _273  and  _274
REMARK  119  A    between atoms: _278  and  _280
REMARK  120  A    between atoms: _280  and  _281
REMARK  121  A    between atoms: _280  and  _283
REMARK  122  A    between atoms: _283  and  _284
REMARK  123  A    between atoms: _289  and  _291
REMARK  124  A    between atoms: _291  and  _292
REMARK  125  A    between atoms: _291  and  _294
REMARK  126  A    between atoms: _294  and  _295
REMARK  127  A    between atoms: _298  and  _300
REMARK  128  A    between atoms: _300  and  _301
REMARK  129  A    between atoms: _300  and  _303
REMARK  130  A    between atoms: _303  and  _304
REMARK  131  A    between atoms: _304  and  _305
REMARK  132  A    between atoms: _308  and  _310
REMARK  133  A    between atoms: _310  and  _311
REMARK  134  A    between atoms: _310  and  _313
REMARK  135  A    between atoms: _313  and  _314
REMARK  136  A    between atoms: _317  and  _319
REMARK  137  A    between atoms: _319  and  _320
REMARK  138  A    between atoms: _319  and  _322
REMARK  139  A    between atoms: _322  and  _323
REMARK  140  A    between atoms: _323  and  _324
REMARK  141  A    between atoms: _327  and  _329
REMARK  142  A    between atoms: _329  and  _330
REMARK  143  A    between atoms: _329  and  _332
REMARK  144  A    between atoms: _332  and  _333
REMARK  145  A    between atoms: _336  and  _338
REMARK  146  A    between atoms: _338  and  _339
REMARK  147  A    between atoms: _338  and  _341
REMARK  148  A    between atoms: _341  and  _342
REMARK  149  A    between atoms: _345  and  _347
REMARK  150  A    between atoms: _347  and  _348
REMARK  151  A    between atoms: _351  and  _353
REMARK  152  A    between atoms: _353  and  _354
REMARK  153  A    between atoms: _353  and  _356
REMARK  154  A    between atoms: _356  and  _357
REMARK  155  A    between atoms: _360  and  _362
REMARK  156  A    between atoms: _362  and  _363
REMARK  157  A    between atoms: _362  and  _365
REMARK  158  A    between atoms: _365  and  _366
REMARK  159  A    between atoms: _369  and  _371
REMARK  160  A    between atoms: _371  and  _372
REMARK  161  A    between atoms: _371  and  _374
REMARK  162  A    between atoms: _374  and  _375
REMARK  163  A    between atoms: _375  and  _376
REMARK  164  A    between atoms: _376  and  _377
REMARK  165  A    between atoms: _386  and  _388
REMARK  166  A    between atoms: _388  and  _389
REMARK  167  A    between atoms: _388  and  _391
REMARK  168  A    between atoms: _391  and  _392
REMARK  169  A    between atoms: _392  and  _393
REMARK  170  A    between atoms: _398  and  _400
REMARK  171  A    between atoms: _400  and  _401
REMARK  172  A    between atoms: _400  and  _403
REMARK  173  A    between atoms: _403  and  _404
REMARK  174  A    between atoms: _404  and  _405
REMARK  175  A    between atoms: _410  and  _412
REMARK  176  A    between atoms: _412  and  _413
REMARK  177  A    between atoms: _412  and  _415
REMARK  178  A    between atoms: _415  and  _416
REMARK  179  A    between atoms: _426  and  _428
REMARK  180  A    between atoms: _428  and  _429
REMARK  181  A    between atoms: _428  and  _431
REMARK  182  A    between atoms: _431  and  _432
REMARK  183  A    between atoms: _435  and  _437
REMARK  184  A    between atoms: _437  and  _438
REMARK  185  A    between atoms: _437  and  _440
REMARK  186  A    between atoms: _440  and  _441
REMARK  187  A    between atoms: _444  and  _446
REMARK  188  A    between atoms: _446  and  _447
REMARK  189  A    between atoms: _446  and  _449
REMARK  190  A    between atoms: _449  and  _450
REMARK  191  A    between atoms: _453  and  _455
REMARK  192  A    between atoms: _455  and  _456
REMARK  193  A    between atoms: _455  and  _458
REMARK  194  A    between atoms: _458  and  _459
REMARK  195  A    between atoms: _459  and  _460
REMARK  196  A    between atoms: _460  and  _461
REMARK  197  A    between atoms: _461  and  _462
REMARK  198  A    between atoms: _466  and  _468
REMARK  199  A    between atoms: _468  and  _469
REMARK  200  A    between atoms: _468  and  _471
REMARK  201  A    between atoms: _471  and  _472
REMARK  202  A    between atoms: _472  and  _473
REMARK  203  A    between atoms: _473  and  _474
REMARK  204  A    between atoms: _483  and  _485
REMARK  205  A    between atoms: _485  and  _486
REMARK  206  A    between atoms: _485  and  _488
REMARK  207  A    between atoms: _491  and  _493
REMARK  208  A    between atoms: _493  and  _494
REMARK  209  A    between atoms: _493  and  _496
REMARK  210  A    between atoms: _496  and  _497
REMARK  211  A    between atoms: _497  and  _498
REMARK  212  A    between atoms: _501  and  _503
REMARK  213  A    between atoms: _503  and  _504
REMARK  214  A    between atoms: _503  and  _506
REMARK  215  A    between atoms: _508  and  _510
REMARK  216  A    between atoms: _510  and  _511
REMARK  217  A    between atoms: _510  and  _513
REMARK  218  A    between atoms: _516  and  _518
REMARK  219  A    between atoms: _518  and  _519
REMARK  220  A    between atoms: _518  and  _521
REMARK  221  A    between atoms: _521  and  _522
REMARK  222  A    between atoms: _524  and  _526
REMARK  223  A    between atoms: _526  and  _527
REMARK  224  A    between atoms: _526  and  _529
REMARK  225  A    between atoms: _529  and  _530
REMARK  226  A    between atoms: _533  and  _535
REMARK  227  A    between atoms: _535  and  _536
REMARK  228  A    between atoms: _535  and  _538
REMARK  229  A    between atoms: _538  and  _539
REMARK  230  A    between atoms: _539  and  _540
REMARK  231  A    between atoms: _540  and  _541
REMARK  232  A    between atoms: _550  and  _552
REMARK  233  A    between atoms: _552  and  _553
REMARK  234  A    between atoms: _552  and  _555
REMARK  235  A    between atoms: _555  and  _556
REMARK  236  A    between atoms: _561  and  _562
REMARK  237  A    between atoms: _564  and  _566
REMARK  238  A    between atoms: _566  and  _567
REMARK  239  A    between atoms: _566  and  _569
REMARK  240  A    between atoms: _569  and  _570
REMARK  241  A    between atoms: _570  and  _571
REMARK                            x       y       z     vdW  Elec       q    Type
REMARK                         _______ _______ _______ _____ _____    ______ ____
ROOT
ATOM      1  O   HOH     1      -5.981 -12.541  14.271  0.00  0.00    +0.000 OA
ENDROOT
TORSDOF 0
REMARK  Name = ../refined-set-2016/2qm9/2qm9_pocket.pdb
REMARK  241 active torsions:
REMARK  status: ('A' for Active; 'I' for Inactive)
REMARK    1  A    between atoms: _1  and  _3
REMARK    2  A    between atoms: _3  and  _4
REMARK    3  A    between atoms: _3  and  _6
REMARK    4  A    between atoms: _6  and  _7
REMARK    5  A    between atoms: _10  and  _12
REMARK    6  A    between atoms: _12  and  _13
REMARK    7  A    between atoms: _12  and  _15
REMARK    8  A    between atoms: _15  and  _16
REMARK    9  A    between atoms: _18  and  _20
REMARK   10  A    between atoms: _20  and  _21
REMARK   11  A    between atoms: _20  and  _23
REMARK   12  A    between atoms: _23  and  _24
REMARK   13  A    between atoms: _30  and  _32
REMARK   14  A    between atoms: _32  and  _33
REMARK   15  A    between atoms: _32  and  _35
REMARK   16  A    between atoms: _35  and  _36
REMARK   17  A    between atoms: _41  and  _42
REMARK   18  A    between atoms: _44  and  _46
REMARK   19  A    between atoms: _46  and  _47
REMARK   20  A    between atoms: _46  and  _49
REMARK   21  A    between atoms: _49  and  _50
REMARK   22  A    between atoms: _50  and  _51
REMARK   23  A    between atoms: _53  and  _55
REMARK   24  A    between atoms: _55  and  _56
REMARK   25  A    between atoms: _55  and  _58
REMARK   26  A    between atoms: _58  and  _59
REMARK   27  A    between atoms: _59  and  _60
REMARK   28  A    between atoms: _60  and  _61
REMARK   29  A    between atoms: _61  and  _62
REMARK   30  A    between atoms: _66  and  _68
REMARK   31  A    between atoms: _68  and  _69
REMARK   32  A    between atoms: _68  and  _71
REMARK   33  A    between atoms: _74  and  _76
REMARK   34  A    between atoms: _76  and  _77
REMARK   35  A    between atoms: _79  and  _81
REMARK   36  A    between atoms: _81  and  _82
REMARK   37  A    between atoms: _81  and  _84
REMARK   38  A    between atoms: _87  and  _89
REMARK   39  A    between atoms: _89  and  _90
REMARK   40  A    between atoms: _92  and  _94
REMARK   41  A    between atoms: _94  and  _95
REMARK   42  A    between atoms: _94  and  _97
REMARK   43  A    between atoms: _97  and  _98
REMARK   44  A    between atoms: _101  and  _103
REMARK   45  A    between atoms: _103  and  _104
REMARK   46  A    between atoms: _103  and  _106
REMARK   47  A    between atoms: _106  and  _107
REMARK   48  A    between atoms: _107  and  _108
REMARK   49  A    between atoms: _108  and  _109
REMARK   50  A    between atoms: _118  and  _120
REMARK   51  A    between atoms: _120  and  _121
REMARK   52  A    between atoms: _120  and  _123
REMARK   53  A    between atoms: _126  and  _128
REMARK   54  A    between atoms: _128  and  _129
REMARK   55  A    between atoms: _132  and  _134
REMARK   56  A    between atoms: _134  and  _135
REMARK   57  A    between atoms: _137  and  _139
REMARK   58  A    between atoms: _139  and  _140
REMARK   59  A    between atoms: _139  and  _142
REMARK   60  A    between atoms: _142  and  _143
REMARK   61  A    between atoms: _143  and  _144
REMARK   62  A    between atoms: _146  and  _148
REMARK   63  A    between atoms: _148  and  _149
REMARK   64  A    between atoms: _152  and  _154
REMARK   65  A    between atoms: _154  and  _155
REMARK   66  A    between atoms: _154  and  _157
REMARK   67  A    between atoms: _157  and  _158
REMARK   68  A    between atoms: _158  and  _159
REMARK   69  A    between atoms: _159  and  _160
REMARK   70  A    between atoms: _160  and  _161
REMARK   71  A    between atoms: _166  and  _167
REMARK   72  A    between atoms: _172  and  _174
REMARK   73  A    between atoms: _174  and  _175
REMARK   74  A    between atoms: _174  and  _177
REMARK   75  A    between atoms: _177  and  _178
REMARK   76  A    between atoms: _183  and  _185
REMARK   77  A    between atoms: _185  and  _186
REMARK   78  A    between atoms: _185  and  _188
REMARK   79  A    between atoms: _188  and  _189
REMARK   80  A    between atoms: _189  and  _190
REMARK   81  A    between atoms: _192  and  _194
REMARK   82  A    between atoms: _194  and  _195
REMARK   83  A    between atoms: _194  and  _197
REMARK   84  A    between atoms: _197  and  _198
REMARK   85  A    between atoms: _201  and  _203
REMARK   86  A    between atoms: _203  and  _204
REMARK   87  A    between atoms: _203  and  _206
REMARK   88  A    between atoms: _206  and  _207
REMARK   89  A    between atoms: _207  and  _208
REMARK   90  A    between atoms: _208  and  _209
REMARK   91  A    between atoms: _218  and  _220
REMARK   92  A    between atoms: _220  and  _221
REMARK   93  A    between atoms: _220  and  _223
REMARK   94  A    between atoms: _223  and  _224
REMARK   95  A    between atoms: _226  and  _228
REMARK   96  A    between atoms: _228  and  _229
REMARK   97  A    between atoms: _228  and  _231
REMARK   98  A    between atoms: _231  and  _232
REMARK   99  A    between atoms: _232  and  _233
REMARK  100  A    between atoms: _236  and  _238
REMARK  101  A    between atoms: _238  and  _239
REMARK  102  A    between atoms: _238  and  _241
REMARK  103  A    between atoms: _241  and  _242
REMARK  104  A    between atoms: _244  and  _246
REMARK  105  A    between atoms: _246  and  _247
REMARK  106  A    between atoms: _246  and  _249
REMARK  107  A    between atoms: _249  and  _250
REMARK  108  A    between atoms: _253  and  _255
REMARK  109  A    between atoms: _255  and  _256
REMARK  110  A    between atoms: _255  and  _258
REMARK  111  A    between atoms: _258  and  _259
REMARK  112  A    between atoms: _265  and  _267
REMARK  113  A    between atoms: _267  and  _268
REMARK  114  A    between atoms: _267  and  _270
REMARK  115  A    between atoms: _270  and  _271
REMARK  116  A    between atoms: _271  and  _272
REMARK  117  A    between atoms: _272  and  _273
REMARK  118  A    between atoms: _273  and  _274
REMARK  119  A    between atoms: _278  and  _280
REMARK  120  A    between atoms: _280  and  _281
REMARK  121  A    between atoms: _280  and  _283
REMARK  122  A    between atoms: _283  and  _284
REMARK  123  A    between atoms: _289  and  _291
REMARK  124  A    between atoms: _291  and  _292
REMARK  125  A    between atoms: _291  and  _294
REMARK  126  A    between atoms: _294  and  _295
REMARK  127  A    between atoms: _298  and  _300
REMARK  128  A    between atoms: _300  and  _301
REMARK  129  A    between atoms: _300  and  _303
REMARK  130  A    between atoms: _303  and  _304
REMARK  131  A    between atoms: _304  and  _305
REMARK  132  A    between atoms: _308  and  _310
REMARK  133  A    between atoms: _310  and  _311
REMARK  134  A    between atoms: _310  and  _313
REMARK  135  A    between atoms: _313  and  _314
REMARK  136  A    between atoms: _317  and  _319
REMARK  137  A    between atoms: _319  and  _320
REMARK  138  A    between atoms: _319  and  _322
REMARK  139  A    between atoms: _322  and  _323
REMARK  140  A    between atoms: _323  and  _324
REMARK  141  A    between atoms: _327  and  _329
REMARK  142  A    between atoms: _329  and  _330
REMARK  143  A    between atoms: _329  and  _332
REMARK  144  A    between atoms: _332  and  _333
REMARK  145  A    between atoms: _336  and  _338
REMARK  146  A    between atoms: _338  and  _339
REMARK  147  A    between atoms: _338  and  _341
REMARK  148  A    between atoms: _341  and  _342
REMARK  149  A    between atoms: _345  and  _347
REMARK  150  A    between atoms: _347  and  _348
REMARK  151  A    between atoms: _351  and  _353
REMARK  152  A    between atoms: _353  and  _354
REMARK  153  A    between atoms: _353  and  _356
REMARK  154  A    between atoms: _356  and  _357
REMARK  155  A    between atoms: _360  and  _362
REMARK  156  A    between atoms: _362  and  _363
REMARK  157  A    between atoms: _362  and  _365
REMARK  158  A    between atoms: _365  and  _366
REMARK  159  A    between atoms: _369  and  _371
REMARK  160  A    between atoms: _371  and  _372
REMARK  161  A    between atoms: _371  and  _374
REMARK  162  A    between atoms: _374  and  _375
REMARK  163  A    between atoms: _375  and  _376
REMARK  164  A    between atoms: _376  and  _377
REMARK  165  A    between atoms: _386  and  _388
REMARK  166  A    between atoms: _388  and  _389
REMARK  167  A    between atoms: _388  and  _391
REMARK  168  A    between atoms: _391  and  _392
REMARK  169  A    between atoms: _392  and  _393
REMARK  170  A    between atoms: _398  and  _400
REMARK  171  A    between atoms: _400  and  _401
REMARK  172  A    between atoms: _400  and  _403
REMARK  173  A    between atoms: _403  and  _404
REMARK  174  A    between atoms: _404  and  _405
REMARK  175  A    between atoms: _410  and  _412
REMARK  176  A    between atoms: _412  and  _413
REMARK  177  A    between atoms: _412  and  _415
REMARK  178  A    between atoms: _415  and  _416
REMARK  179  A    between atoms: _426  and  _428
REMARK  180  A    between atoms: _428  and  _429
REMARK  181  A    between atoms: _428  and  _431
REMARK  182  A    between atoms: _431  and  _432
REMARK  183  A    between atoms: _435  and  _437
REMARK  184  A    between atoms: _437  and  _438
REMARK  185  A    between atoms: _437  and  _440
REMARK  186  A    between atoms: _440  and  _441
REMARK  187  A    between atoms: _444  and  _446
REMARK  188  A    between atoms: _446  and  _447
REMARK  189  A    between atoms: _446  and  _449
REMARK  190  A    between atoms: _449  and  _450
REMARK  191  A    between atoms: _453  and  _455
REMARK  192  A    between atoms: _455  and  _456
REMARK  193  A    between atoms: _455  and  _458
REMARK  194  A    between atoms: _458  and  _459
REMARK  195  A    between atoms: _459  and  _460
REMARK  196  A    between atoms: _460  and  _461
REMARK  197  A    between atoms: _461  and  _462
REMARK  198  A    between atoms: _466  and  _468
REMARK  199  A    between atoms: _468  and  _469
REMARK  200  A    between atoms: _468  and  _471
REMARK  201  A    between atoms: _471  and  _472
REMARK  202  A    between atoms: _472  and  _473
REMARK  203  A    between atoms: _473  and  _474
REMARK  204  A    between atoms: _483  and  _485
REMARK  205  A    between atoms: _485  and  _486
REMARK  206  A    between atoms: _485  and  _488
REMARK  207  A    between atoms: _491  and  _493
REMARK  208  A    between atoms: _493  and  _494
REMARK  209  A    between atoms: _493  and  _496
REMARK  210  A    between atoms: _496  and  _497
REMARK  211  A    between atoms: _497  and  _498
REMARK  212  A    between atoms: _501  and  _503
REMARK  213  A    between atoms: _503  and  _504
REMARK  214  A    between atoms: _503  and  _506
REMARK  215  A    between atoms: _508  and  _510
REMARK  216  A    between atoms: _510  and  _511
REMARK  217  A    between atoms: _510  and  _513
REMARK  218  A    between atoms: _516  and  _518
REMARK  219  A    between atoms: _518  and  _519
REMARK  220  A    between atoms: _518  and  _521
REMARK  221  A    between atoms: _521  and  _522
REMARK  222  A    between atoms: _524  and  _526
REMARK  223  A    between atoms: _526  and  _527
REMARK  224  A    between atoms: _526  and  _529
REMARK  225  A    between atoms: _529  and  _530
REMARK  226  A    between atoms: _533  and  _535
REMARK  227  A    between atoms: _535  and  _536
REMARK  228  A    between atoms: _535  and  _538
REMARK  229  A    between atoms: _538  and  _539
REMARK  230  A    between atoms: _539  and  _540
REMARK  231  A    between atoms: _540  and  _541
REMARK  232  A    between atoms: _550  and  _552
REMARK  233  A    between atoms: _552  and  _553
REMARK  234  A    between atoms: _552  and  _555
REMARK  235  A    between atoms: _555  and  _556
REMARK  236  A    between atoms: _561  and  _562
REMARK  237  A    between atoms: _564  and  _566
REMARK  238  A    between atoms: _566  and  _567
REMARK  239  A    between atoms: _566  and  _569
REMARK  240  A    between atoms: _569  and  _570
REMARK  241  A    between atoms: _570  and  _571
REMARK                            x       y       z     vdW  Elec       q    Type
REMARK                         _______ _______ _______ _____ _____    ______ ____
ROOT
ATOM      1  O   HOH     1      -8.553 -16.079  30.860  0.00  0.00    +0.000 OA
ENDROOT
TORSDOF 0
REMARK  Name = ../refined-set-2016/2qm9/2qm9_pocket.pdb
REMARK  241 active torsions:
REMARK  status: ('A' for Active; 'I' for Inactive)
REMARK    1  A    between atoms: _1  and  _3
REMARK    2  A    between atoms: _3  and  _4
REMARK    3  A    between atoms: _3  and  _6
REMARK    4  A    between atoms: _6  and  _7
REMARK    5  A    between atoms: _10  and  _12
REMARK    6  A    between atoms: _12  and  _13
REMARK    7  A    between atoms: _12  and  _15
REMARK    8  A    between atoms: _15  and  _16
REMARK    9  A    between atoms: _18  and  _20
REMARK   10  A    between atoms: _20  and  _21
REMARK   11  A    between atoms: _20  and  _23
REMARK   12  A    between atoms: _23  and  _24
REMARK   13  A    between atoms: _30  and  _32
REMARK   14  A    between atoms: _32  and  _33
REMARK   15  A    between atoms: _32  and  _35
REMARK   16  A    between atoms: _35  and  _36
REMARK   17  A    between atoms: _41  and  _42
REMARK   18  A    between atoms: _44  and  _46
REMARK   19  A    between atoms: _46  and  _47
REMARK   20  A    between atoms: _46  and  _49
REMARK   21  A    between atoms: _49  and  _50
REMARK   22  A    between atoms: _50  and  _51
REMARK   23  A    between atoms: _53  and  _55
REMARK   24  A    between atoms: _55  and  _56
REMARK   25  A    between atoms: _55  and  _58
REMARK   26  A    between atoms: _58  and  _59
REMARK   27  A    between atoms: _59  and  _60
REMARK   28  A    between atoms: _60  and  _61
REMARK   29  A    between atoms: _61  and  _62
REMARK   30  A    between atoms: _66  and  _68
REMARK   31  A    between atoms: _68  and  _69
REMARK   32  A    between atoms: _68  and  _71
REMARK   33  A    between atoms: _74  and  _76
REMARK   34  A    between atoms: _76  and  _77
REMARK   35  A    between atoms: _79  and  _81
REMARK   36  A    between atoms: _81  and  _82
REMARK   37  A    between atoms: _81  and  _84
REMARK   38  A    between atoms: _87  and  _89
REMARK   39  A    between atoms: _89  and  _90
REMARK   40  A    between atoms: _92  and  _94
REMARK   41  A    between atoms: _94  and  _95
REMARK   42  A    between atoms: _94  and  _97
REMARK   43  A    between atoms: _97  and  _98
REMARK   44  A    between atoms: _101  and  _103
REMARK   45  A    between atoms: _103  and  _104
REMARK   46  A    between atoms: _103  and  _106
REMARK   47  A    between atoms: _106  and  _107
REMARK   48  A    between atoms: _107  and  _108
REMARK   49  A    between atoms: _108  and  _109
REMARK   50  A    between atoms: _118  and  _120
REMARK   51  A    between atoms: _120  and  _121
REMARK   52  A    between atoms: _120  and  _123
REMARK   53  A    between atoms: _126  and  _128
REMARK   54  A    between atoms: _128  and  _129
REMARK   55  A    between atoms: _132  and  _134
REMARK   56  A    between atoms: _134  and  _135
REMARK   57  A    between atoms: _137  and  _139
REMARK   58  A    between atoms: _139  and  _140
REMARK   59  A    between atoms: _139  and  _142
REMARK   60  A    between atoms: _142  and  _143
REMARK   61  A    between atoms: _143  and  _144
REMARK   62  A    between atoms: _146  and  _148
REMARK   63  A    between atoms: _148  and  _149
REMARK   64  A    between atoms: _152  and  _154
REMARK   65  A    between atoms: _154  and  _155
REMARK   66  A    between atoms: _154  and  _157
REMARK   67  A    between atoms: _157  and  _158
REMARK   68  A    between atoms: _158  and  _159
REMARK   69  A    between atoms: _159  and  _160
REMARK   70  A    between atoms: _160  and  _161
REMARK   71  A    between atoms: _166  and  _167
REMARK   72  A    between atoms: _172  and  _174
REMARK   73  A    between atoms: _174  and  _175
REMARK   74  A    between atoms: _174  and  _177
REMARK   75  A    between atoms: _177  and  _178
REMARK   76  A    between atoms: _183  and  _185
REMARK   77  A    between atoms: _185  and  _186
REMARK   78  A    between atoms: _185  and  _188
REMARK   79  A    between atoms: _188  and  _189
REMARK   80  A    between atoms: _189  and  _190
REMARK   81  A    between atoms: _192  and  _194
REMARK   82  A    between atoms: _194  and  _195
REMARK   83  A    between atoms: _194  and  _197
REMARK   84  A    between atoms: _197  and  _198
REMARK   85  A    between atoms: _201  and  _203
REMARK   86  A    between atoms: _203  and  _204
REMARK   87  A    between atoms: _203  and  _206
REMARK   88  A    between atoms: _206  and  _207
REMARK   89  A    between atoms: _207  and  _208
REMARK   90  A    between atoms: _208  and  _209
REMARK   91  A    between atoms: _218  and  _220
REMARK   92  A    between atoms: _220  and  _221
REMARK   93  A    between atoms: _220  and  _223
REMARK   94  A    between atoms: _223  and  _224
REMARK   95  A    between atoms: _226  and  _228
REMARK   96  A    between atoms: _228  and  _229
REMARK   97  A    between atoms: _228  and  _231
REMARK   98  A    between atoms: _231  and  _232
REMARK   99  A    between atoms: _232  and  _233
REMARK  100  A    between atoms: _236  and  _238
REMARK  101  A    between atoms: _238  and  _239
REMARK  102  A    between atoms: _238  and  _241
REMARK  103  A    between atoms: _241  and  _242
REMARK  104  A    between atoms: _244  and  _246
REMARK  105  A    between atoms: _246  and  _247
REMARK  106  A    between atoms: _246  and  _249
REMARK  107  A    between atoms: _249  and  _250
REMARK  108  A    between atoms: _253  and  _255
REMARK  109  A    between atoms: _255  and  _256
REMARK  110  A    between atoms: _255  and  _258
REMARK  111  A    between atoms: _258  and  _259
REMARK  112  A    between atoms: _265  and  _267
REMARK  113  A    between atoms: _267  and  _268
REMARK  114  A    between atoms: _267  and  _270
REMARK  115  A    between atoms: _270  and  _271
REMARK  116  A    between atoms: _271  and  _272
REMARK  117  A    between atoms: _272  and  _273
REMARK  118  A    between atoms: _273  and  _274
REMARK  119  A    between atoms: _278  and  _280
REMARK  120  A    between atoms: _280  and  _281
REMARK  121  A    between atoms: _280  and  _283
REMARK  122  A    between atoms: _283  and  _284
REMARK  123  A    between atoms: _289  and  _291
REMARK  124  A    between atoms: _291  and  _292
REMARK  125  A    between atoms: _291  and  _294
REMARK  126  A    between atoms: _294  and  _295
REMARK  127  A    between atoms: _298  and  _300
REMARK  128  A    between atoms: _300  and  _301
REMARK  129  A    between atoms: _300  and  _303
REMARK  130  A    between atoms: _303  and  _304
REMARK  131  A    between atoms: _304  and  _305
REMARK  132  A    between atoms: _308  and  _310
REMARK  133  A    between atoms: _310  and  _311
REMARK  134  A    between atoms: _310  and  _313
REMARK  135  A    between atoms: _313  and  _314
REMARK  136  A    between atoms: _317  and  _319
REMARK  137  A    between atoms: _319  and  _320
REMARK  138  A    between atoms: _319  and  _322
REMARK  139  A    between atoms: _322  and  _323
REMARK  140  A    between atoms: _323  and  _324
REMARK  141  A    between atoms: _327  and  _329
REMARK  142  A    between atoms: _329  and  _330
REMARK  143  A    between atoms: _329  and  _332
REMARK  144  A    between atoms: _332  and  _333
REMARK  145  A    between atoms: _336  and  _338
REMARK  146  A    between atoms: _338  and  _339
REMARK  147  A    between atoms: _338  and  _341
REMARK  148  A    between atoms: _341  and  _342
REMARK  149  A    between atoms: _345  and  _347
REMARK  150  A    between atoms: _347  and  _348
REMARK  151  A    between atoms: _351  and  _353
REMARK  152  A    between atoms: _353  and  _354
REMARK  153  A    between atoms: _353  and  _356
REMARK  154  A    between atoms: _356  and  _357
REMARK  155  A    between atoms: _360  and  _362
REMARK  156  A    between atoms: _362  and  _363
REMARK  157  A    between atoms: _362  and  _365
REMARK  158  A    between atoms: _365  and  _366
REMARK  159  A    between atoms: _369  and  _371
REMARK  160  A    between atoms: _371  and  _372
REMARK  161  A    between atoms: _371  and  _374
REMARK  162  A    between atoms: _374  and  _375
REMARK  163  A    between atoms: _375  and  _376
REMARK  164  A    between atoms: _376  and  _377
REMARK  165  A    between atoms: _386  and  _388
REMARK  166  A    between atoms: _388  and  _389
REMARK  167  A    between atoms: _388  and  _391
REMARK  168  A    between atoms: _391  and  _392
REMARK  169  A    between atoms: _392  and  _393
REMARK  170  A    between atoms: _398  and  _400
REMARK  171  A    between atoms: _400  and  _401
REMARK  172  A    between atoms: _400  and  _403
REMARK  173  A    between atoms: _403  and  _404
REMARK  174  A    between atoms: _404  and  _405
REMARK  175  A    between atoms: _410  and  _412
REMARK  176  A    between atoms: _412  and  _413
REMARK  177  A    between atoms: _412  and  _415
REMARK  178  A    between atoms: _415  and  _416
REMARK  179  A    between atoms: _426  and  _428
REMARK  180  A    between atoms: _428  and  _429
REMARK  181  A    between atoms: _428  and  _431
REMARK  182  A    between atoms: _431  and  _432
REMARK  183  A    between atoms: _435  and  _437
REMARK  184  A    between atoms: _437  and  _438
REMARK  185  A    between atoms: _437  and  _440
REMARK  186  A    between atoms: _440  and  _441
REMARK  187  A    between atoms: _444  and  _446
REMARK  188  A    between atoms: _446  and  _447
REMARK  189  A    between atoms: _446  and  _449
REMARK  190  A    between atoms: _449  and  _450
REMARK  191  A    between atoms: _453  and  _455
REMARK  192  A    between atoms: _455  and  _456
REMARK  193  A    between atoms: _455  and  _458
REMARK  194  A    between atoms: _458  and  _459
REMARK  195  A    between atoms: _459  and  _460
REMARK  196  A    between atoms: _460  and  _461
REMARK  197  A    between atoms: _461  and  _462
REMARK  198  A    between atoms: _466  and  _468
REMARK  199  A    between atoms: _468  and  _469
REMARK  200  A    between atoms: _468  and  _471
REMARK  201  A    between atoms: _471  and  _472
REMARK  202  A    between atoms: _472  and  _473
REMARK  203  A    between atoms: _473  and  _474
REMARK  204  A    between atoms: _483  and  _485
REMARK  205  A    between atoms: _485  and  _486
REMARK  206  A    between atoms: _485  and  _488
REMARK  207  A    between atoms: _491  and  _493
REMARK  208  A    between atoms: _493  and  _494
REMARK  209  A    between atoms: _493  and  _496
REMARK  210  A    between atoms: _496  and  _497
REMARK  211  A    between atoms: _497  and  _498
REMARK  212  A    between atoms: _501  and  _503
REMARK  213  A    between atoms: _503  and  _504
REMARK  214  A    between atoms: _503  and  _506
REMARK  215  A    between atoms: _508  and  _510
REMARK  216  A    between atoms: _510  and  _511
REMARK  217  A    between atoms: _510  and  _513
REMARK  218  A    between atoms: _516  and  _518
REMARK  219  A    between atoms: _518  and  _519
REMARK  220  A    between atoms: _518  and  _521
REMARK  221  A    between atoms: _521  and  _522
REMARK  222  A    between atoms: _524  and  _526
REMARK  223  A    between atoms: _526  and  _527
REMARK  224  A    between atoms: _526  and  _529
REMARK  225  A    between atoms: _529  and  _530
REMARK  226  A    between atoms: _533  and  _535
REMARK  227  A    between atoms: _535  and  _536
REMARK  228  A    between atoms: _535  and  _538
REMARK  229  A    between atoms: _538  and  _539
REMARK  230  A    between atoms: _539  and  _540
REMARK  231  A    between atoms: _540  and  _541
REMARK  232  A    between atoms: _550  and  _552
REMARK  233  A    between atoms: _552  and  _553
REMARK  234  A    between atoms: _552  and  _555
REMARK  235  A    between atoms: _555  and  _556
REMARK  236  A    between atoms: _561  and  _562
REMARK  237  A    between atoms: _564  and  _566
REMARK  238  A    between atoms: _566  and  _567
REMARK  239  A    between atoms: _566  and  _569
REMARK  240  A    between atoms: _569  and  _570
REMARK  241  A    between atoms: _570  and  _571
REMARK                            x       y       z     vdW  Elec       q    Type
REMARK                         _______ _______ _______ _____ _____    ______ ____
ROOT
ATOM      1  O   HOH     1      -3.947 -14.992  21.441  0.00  0.00    +0.000 OA
ENDROOT
TORSDOF 0
REMARK  Name = ../refined-set-2016/2qm9/2qm9_pocket.pdb
REMARK  241 active torsions:
REMARK  status: ('A' for Active; 'I' for Inactive)
REMARK    1  A    between atoms: _1  and  _3
REMARK    2  A    between atoms: _3  and  _4
REMARK    3  A    between atoms: _3  and  _6
REMARK    4  A    between atoms: _6  and  _7
REMARK    5  A    between atoms: _10  and  _12
REMARK    6  A    between atoms: _12  and  _13
REMARK    7  A    between atoms: _12  and  _15
REMARK    8  A    between atoms: _15  and  _16
REMARK    9  A    between atoms: _18  and  _20
REMARK   10  A    between atoms: _20  and  _21
REMARK   11  A    between atoms: _20  and  _23
REMARK   12  A    between atoms: _23  and  _24
REMARK   13  A    between atoms: _30  and  _32
REMARK   14  A    between atoms: _32  and  _33
REMARK   15  A    between atoms: _32  and  _35
REMARK   16  A    between atoms: _35  and  _36
REMARK   17  A    between atoms: _41  and  _42
REMARK   18  A    between atoms: _44  and  _46
REMARK   19  A    between atoms: _46  and  _47
REMARK   20  A    between atoms: _46  and  _49
REMARK   21  A    between atoms: _49  and  _50
REMARK   22  A    between atoms: _50  and  _51
REMARK   23  A    between atoms: _53  and  _55
REMARK   24  A    between atoms: _55  and  _56
REMARK   25  A    between atoms: _55  and  _58
REMARK   26  A    between atoms: _58  and  _59
REMARK   27  A    between atoms: _59  and  _60
REMARK   28  A    between atoms: _60  and  _61
REMARK   29  A    between atoms: _61  and  _62
REMARK   30  A    between atoms: _66  and  _68
REMARK   31  A    between atoms: _68  and  _69
REMARK   32  A    between atoms: _68  and  _71
REMARK   33  A    between atoms: _74  and  _76
REMARK   34  A    between atoms: _76  and  _77
REMARK   35  A    between atoms: _79  and  _81
REMARK   36  A    between atoms: _81  and  _82
REMARK   37  A    between atoms: _81  and  _84
REMARK   38  A    between atoms: _87  and  _89
REMARK   39  A    between atoms: _89  and  _90
REMARK   40  A    between atoms: _92  and  _94
REMARK   41  A    between atoms: _94  and  _95
REMARK   42  A    between atoms: _94  and  _97
REMARK   43  A    between atoms: _97  and  _98
REMARK   44  A    between atoms: _101  and  _103
REMARK   45  A    between atoms: _103  and  _104
REMARK   46  A    between atoms: _103  and  _106
REMARK   47  A    between atoms: _106  and  _107
REMARK   48  A    between atoms: _107  and  _108
REMARK   49  A    between atoms: _108  and  _109
REMARK   50  A    between atoms: _118  and  _120
REMARK   51  A    between atoms: _120  and  _121
REMARK   52  A    between atoms: _120  and  _123
REMARK   53  A    between atoms: _126  and  _128
REMARK   54  A    between atoms: _128  and  _129
REMARK   55  A    between atoms: _132  and  _134
REMARK   56  A    between atoms: _134  and  _135
REMARK   57  A    between atoms: _137  and  _139
REMARK   58  A    between atoms: _139  and  _140
REMARK   59  A    between atoms: _139  and  _142
REMARK   60  A    between atoms: _142  and  _143
REMARK   61  A    between atoms: _143  and  _144
REMARK   62  A    between atoms: _146  and  _148
REMARK   63  A    between atoms: _148  and  _149
REMARK   64  A    between atoms: _152  and  _154
REMARK   65  A    between atoms: _154  and  _155
REMARK   66  A    between atoms: _154  and  _157
REMARK   67  A    between atoms: _157  and  _158
REMARK   68  A    between atoms: _158  and  _159
REMARK   69  A    between atoms: _159  and  _160
REMARK   70  A    between atoms: _160  and  _161
REMARK   71  A    between atoms: _166  and  _167
REMARK   72  A    between atoms: _172  and  _174
REMARK   73  A    between atoms: _174  and  _175
REMARK   74  A    between atoms: _174  and  _177
REMARK   75  A    between atoms: _177  and  _178
REMARK   76  A    between atoms: _183  and  _185
REMARK   77  A    between atoms: _185  and  _186
REMARK   78  A    between atoms: _185  and  _188
REMARK   79  A    between atoms: _188  and  _189
REMARK   80  A    between atoms: _189  and  _190
REMARK   81  A    between atoms: _192  and  _194
REMARK   82  A    between atoms: _194  and  _195
REMARK   83  A    between atoms: _194  and  _197
REMARK   84  A    between atoms: _197  and  _198
REMARK   85  A    between atoms: _201  and  _203
REMARK   86  A    between atoms: _203  and  _204
REMARK   87  A    between atoms: _203  and  _206
REMARK   88  A    between atoms: _206  and  _207
REMARK   89  A    between atoms: _207  and  _208
REMARK   90  A    between atoms: _208  and  _209
REMARK   91  A    between atoms: _218  and  _220
REMARK   92  A    between atoms: _220  and  _221
REMARK   93  A    between atoms: _220  and  _223
REMARK   94  A    between atoms: _223  and  _224
REMARK   95  A    between atoms: _226  and  _228
REMARK   96  A    between atoms: _228  and  _229
REMARK   97  A    between atoms: _228  and  _231
REMARK   98  A    between atoms: _231  and  _232
REMARK   99  A    between atoms: _232  and  _233
REMARK  100  A    between atoms: _236  and  _238
REMARK  101  A    between atoms: _238  and  _239
REMARK  102  A    between atoms: _238  and  _241
REMARK  103  A    between atoms: _241  and  _242
REMARK  104  A    between atoms: _244  and  _246
REMARK  105  A    between atoms: _246  and  _247
REMARK  106  A    between atoms: _246  and  _249
REMARK  107  A    between atoms: _249  and  _250
REMARK  108  A    between atoms: _253  and  _255
REMARK  109  A    between atoms: _255  and  _256
REMARK  110  A    between atoms: _255  and  _258
REMARK  111  A    between atoms: _258  and  _259
REMARK  112  A    between atoms: _265  and  _267
REMARK  113  A    between atoms: _267  and  _268
REMARK  114  A    between atoms: _267  and  _270
REMARK  115  A    between atoms: _270  and  _271
REMARK  116  A    between atoms: _271  and  _272
REMARK  117  A    between atoms: _272  and  _273
REMARK  118  A    between atoms: _273  and  _274
REMARK  119  A    between atoms: _278  and  _280
REMARK  120  A    between atoms: _280  and  _281
REMARK  121  A    between atoms: _280  and  _283
REMARK  122  A    between atoms: _283  and  _284
REMARK  123  A    between atoms: _289  and  _291
REMARK  124  A    between atoms: _291  and  _292
REMARK  125  A    between atoms: _291  and  _294
REMARK  126  A    between atoms: _294  and  _295
REMARK  127  A    between atoms: _298  and  _300
REMARK  128  A    between atoms: _300  and  _301
REMARK  129  A    between atoms: _300  and  _303
REMARK  130  A    between atoms: _303  and  _304
REMARK  131  A    between atoms: _304  and  _305
REMARK  132  A    between atoms: _308  and  _310
REMARK  133  A    between atoms: _310  and  _311
REMARK  134  A    between atoms: _310  and  _313
REMARK  135  A    between atoms: _313  and  _314
REMARK  136  A    between atoms: _317  and  _319
REMARK  137  A    between atoms: _319  and  _320
REMARK  138  A    between atoms: _319  and  _322
REMARK  139  A    between atoms: _322  and  _323
REMARK  140  A    between atoms: _323  and  _324
REMARK  141  A    between atoms: _327  and  _329
REMARK  142  A    between atoms: _329  and  _330
REMARK  143  A    between atoms: _329  and  _332
REMARK  144  A    between atoms: _332  and  _333
REMARK  145  A    between atoms: _336  and  _338
REMARK  146  A    between atoms: _338  and  _339
REMARK  147  A    between atoms: _338  and  _341
REMARK  148  A    between atoms: _341  and  _342
REMARK  149  A    between atoms: _345  and  _347
REMARK  150  A    between atoms: _347  and  _348
REMARK  151  A    between atoms: _351  and  _353
REMARK  152  A    between atoms: _353  and  _354
REMARK  153  A    between atoms: _353  and  _356
REMARK  154  A    between atoms: _356  and  _357
REMARK  155  A    between atoms: _360  and  _362
REMARK  156  A    between atoms: _362  and  _363
REMARK  157  A    between atoms: _362  and  _365
REMARK  158  A    between atoms: _365  and  _366
REMARK  159  A    between atoms: _369  and  _371
REMARK  160  A    between atoms: _371  and  _372
REMARK  161  A    between atoms: _371  and  _374
REMARK  162  A    between atoms: _374  and  _375
REMARK  163  A    between atoms: _375  and  _376
REMARK  164  A    between atoms: _376  and  _377
REMARK  165  A    between atoms: _386  and  _388
REMARK  166  A    between atoms: _388  and  _389
REMARK  167  A    between atoms: _388  and  _391
REMARK  168  A    between atoms: _391  and  _392
REMARK  169  A    between atoms: _392  and  _393
REMARK  170  A    between atoms: _398  and  _400
REMARK  171  A    between atoms: _400  and  _401
REMARK  172  A    between atoms: _400  and  _403
REMARK  173  A    between atoms: _403  and  _404
REMARK  174  A    between atoms: _404  and  _405
REMARK  175  A    between atoms: _410  and  _412
REMARK  176  A    between atoms: _412  and  _413
REMARK  177  A    between atoms: _412  and  _415
REMARK  178  A    between atoms: _415  and  _416
REMARK  179  A    between atoms: _426  and  _428
REMARK  180  A    between atoms: _428  and  _429
REMARK  181  A    between atoms: _428  and  _431
REMARK  182  A    between atoms: _431  and  _432
REMARK  183  A    between atoms: _435  and  _437
REMARK  184  A    between atoms: _437  and  _438
REMARK  185  A    between atoms: _437  and  _440
REMARK  186  A    between atoms: _440  and  _441
REMARK  187  A    between atoms: _444  and  _446
REMARK  188  A    between atoms: _446  and  _447
REMARK  189  A    between atoms: _446  and  _449
REMARK  190  A    between atoms: _449  and  _450
REMARK  191  A    between atoms: _453  and  _455
REMARK  192  A    between atoms: _455  and  _456
REMARK  193  A    between atoms: _455  and  _458
REMARK  194  A    between atoms: _458  and  _459
REMARK  195  A    between atoms: _459  and  _460
REMARK  196  A    between atoms: _460  and  _461
REMARK  197  A    between atoms: _461  and  _462
REMARK  198  A    between atoms: _466  and  _468
REMARK  199  A    between atoms: _468  and  _469
REMARK  200  A    between atoms: _468  and  _471
REMARK  201  A    between atoms: _471  and  _472
REMARK  202  A    between atoms: _472  and  _473
REMARK  203  A    between atoms: _473  and  _474
REMARK  204  A    between atoms: _483  and  _485
REMARK  205  A    between atoms: _485  and  _486
REMARK  206  A    between atoms: _485  and  _488
REMARK  207  A    between atoms: _491  and  _493
REMARK  208  A    between atoms: _493  and  _494
REMARK  209  A    between atoms: _493  and  _496
REMARK  210  A    between atoms: _496  and  _497
REMARK  211  A    between atoms: _497  and  _498
REMARK  212  A    between atoms: _501  and  _503
REMARK  213  A    between atoms: _503  and  _504
REMARK  214  A    between atoms: _503  and  _506
REMARK  215  A    between atoms: _508  and  _510
REMARK  216  A    between atoms: _510  and  _511
REMARK  217  A    between atoms: _510  and  _513
REMARK  218  A    between atoms: _516  and  _518
REMARK  219  A    between atoms: _518  and  _519
REMARK  220  A    between atoms: _518  and  _521
REMARK  221  A    between atoms: _521  and  _522
REMARK  222  A    between atoms: _524  and  _526
REMARK  223  A    between atoms: _526  and  _527
REMARK  224  A    between atoms: _526  and  _529
REMARK  225  A    between atoms: _529  and  _530
REMARK  226  A    between atoms: _533  and  _535
REMARK  227  A    between atoms: _535  and  _536
REMARK  228  A    between atoms: _535  and  _538
REMARK  229  A    between atoms: _538  and  _539
REMARK  230  A    between atoms: _539  and  _540
REMARK  231  A    between atoms: _540  and  _541
REMARK  232  A    between atoms: _550  and  _552
REMARK  233  A    between atoms: _552  and  _553
REMARK  234  A    between atoms: _552  and  _555
REMARK  235  A    between atoms: _555  and  _556
REMARK  236  A    between atoms: _561  and  _562
REMARK  237  A    between atoms: _564  and  _566
REMARK  238  A    between atoms: _566  and  _567
REMARK  239  A    between atoms: _566  and  _569
REMARK  240  A    between atoms: _569  and  _570
REMARK  241  A    between atoms: _570  and  _571
REMARK                            x       y       z     vdW  Elec       q    Type
REMARK                         _______ _______ _______ _____ _____    ______ ____
ROOT
ATOM      1  O   HOH     1     -10.550 -14.885  15.087  0.00  0.00    +0.000 OA
ENDROOT
TORSDOF 0
REMARK  Name = ../refined-set-2016/2qm9/2qm9_pocket.pdb
REMARK  241 active torsions:
REMARK  status: ('A' for Active; 'I' for Inactive)
REMARK    1  A    between atoms: _1  and  _3
REMARK    2  A    between atoms: _3  and  _4
REMARK    3  A    between atoms: _3  and  _6
REMARK    4  A    between atoms: _6  and  _7
REMARK    5  A    between atoms: _10  and  _12
REMARK    6  A    between atoms: _12  and  _13
REMARK    7  A    between atoms: _12  and  _15
REMARK    8  A    between atoms: _15  and  _16
REMARK    9  A    between atoms: _18  and  _20
REMARK   10  A    between atoms: _20  and  _21
REMARK   11  A    between atoms: _20  and  _23
REMARK   12  A    between atoms: _23  and  _24
REMARK   13  A    between atoms: _30  and  _32
REMARK   14  A    between atoms: _32  and  _33
REMARK   15  A    between atoms: _32  and  _35
REMARK   16  A    between atoms: _35  and  _36
REMARK   17  A    between atoms: _41  and  _42
REMARK   18  A    between atoms: _44  and  _46
REMARK   19  A    between atoms: _46  and  _47
REMARK   20  A    between atoms: _46  and  _49
REMARK   21  A    between atoms: _49  and  _50
REMARK   22  A    between atoms: _50  and  _51
REMARK   23  A    between atoms: _53  and  _55
REMARK   24  A    between atoms: _55  and  _56
REMARK   25  A    between atoms: _55  and  _58
REMARK   26  A    between atoms: _58  and  _59
REMARK   27  A    between atoms: _59  and  _60
REMARK   28  A    between atoms: _60  and  _61
REMARK   29  A    between atoms: _61  and  _62
REMARK   30  A    between atoms: _66  and  _68
REMARK   31  A    between atoms: _68  and  _69
REMARK   32  A    between atoms: _68  and  _71
REMARK   33  A    between atoms: _74  and  _76
REMARK   34  A    between atoms: _76  and  _77
REMARK   35  A    between atoms: _79  and  _81
REMARK   36  A    between atoms: _81  and  _82
REMARK   37  A    between atoms: _81  and  _84
REMARK   38  A    between atoms: _87  and  _89
REMARK   39  A    between atoms: _89  and  _90
REMARK   40  A    between atoms: _92  and  _94
REMARK   41  A    between atoms: _94  and  _95
REMARK   42  A    between atoms: _94  and  _97
REMARK   43  A    between atoms: _97  and  _98
REMARK   44  A    between atoms: _101  and  _103
REMARK   45  A    between atoms: _103  and  _104
REMARK   46  A    between atoms: _103  and  _106
REMARK   47  A    between atoms: _106  and  _107
REMARK   48  A    between atoms: _107  and  _108
REMARK   49  A    between atoms: _108  and  _109
REMARK   50  A    between atoms: _118  and  _120
REMARK   51  A    between atoms: _120  and  _121
REMARK   52  A    between atoms: _120  and  _123
REMARK   53  A    between atoms: _126  and  _128
REMARK   54  A    between atoms: _128  and  _129
REMARK   55  A    between atoms: _132  and  _134
REMARK   56  A    between atoms: _134  and  _135
REMARK   57  A    between atoms: _137  and  _139
REMARK   58  A    between atoms: _139  and  _140
REMARK   59  A    between atoms: _139  and  _142
REMARK   60  A    between atoms: _142  and  _143
REMARK   61  A    between atoms: _143  and  _144
REMARK   62  A    between atoms: _146  and  _148
REMARK   63  A    between atoms: _148  and  _149
REMARK   64  A    between atoms: _152  and  _154
REMARK   65  A    between atoms: _154  and  _155
REMARK   66  A    between atoms: _154  and  _157
REMARK   67  A    between atoms: _157  and  _158
REMARK   68  A    between atoms: _158  and  _159
REMARK   69  A    between atoms: _159  and  _160
REMARK   70  A    between atoms: _160  and  _161
REMARK   71  A    between atoms: _166  and  _167
REMARK   72  A    between atoms: _172  and  _174
REMARK   73  A    between atoms: _174  and  _175
REMARK   74  A    between atoms: _174  and  _177
REMARK   75  A    between atoms: _177  and  _178
REMARK   76  A    between atoms: _183  and  _185
REMARK   77  A    between atoms: _185  and  _186
REMARK   78  A    between atoms: _185  and  _188
REMARK   79  A    between atoms: _188  and  _189
REMARK   80  A    between atoms: _189  and  _190
REMARK   81  A    between atoms: _192  and  _194
REMARK   82  A    between atoms: _194  and  _195
REMARK   83  A    between atoms: _194  and  _197
REMARK   84  A    between atoms: _197  and  _198
REMARK   85  A    between atoms: _201  and  _203
REMARK   86  A    between atoms: _203  and  _204
REMARK   87  A    between atoms: _203  and  _206
REMARK   88  A    between atoms: _206  and  _207
REMARK   89  A    between atoms: _207  and  _208
REMARK   90  A    between atoms: _208  and  _209
REMARK   91  A    between atoms: _218  and  _220
REMARK   92  A    between atoms: _220  and  _221
REMARK   93  A    between atoms: _220  and  _223
REMARK   94  A    between atoms: _223  and  _224
REMARK   95  A    between atoms: _226  and  _228
REMARK   96  A    between atoms: _228  and  _229
REMARK   97  A    between atoms: _228  and  _231
REMARK   98  A    between atoms: _231  and  _232
REMARK   99  A    between atoms: _232  and  _233
REMARK  100  A    between atoms: _236  and  _238
REMARK  101  A    between atoms: _238  and  _239
REMARK  102  A    between atoms: _238  and  _241
REMARK  103  A    between atoms: _241  and  _242
REMARK  104  A    between atoms: _244  and  _246
REMARK  105  A    between atoms: _246  and  _247
REMARK  106  A    between atoms: _246  and  _249
REMARK  107  A    between atoms: _249  and  _250
REMARK  108  A    between atoms: _253  and  _255
REMARK  109  A    between atoms: _255  and  _256
REMARK  110  A    between atoms: _255  and  _258
REMARK  111  A    between atoms: _258  and  _259
REMARK  112  A    between atoms: _265  and  _267
REMARK  113  A    between atoms: _267  and  _268
REMARK  114  A    between atoms: _267  and  _270
REMARK  115  A    between atoms: _270  and  _271
REMARK  116  A    between atoms: _271  and  _272
REMARK  117  A    between atoms: _272  and  _273
REMARK  118  A    between atoms: _273  and  _274
REMARK  119  A    between atoms: _278  and  _280
REMARK  120  A    between atoms: _280  and  _281
REMARK  121  A    between atoms: _280  and  _283
REMARK  122  A    between atoms: _283  and  _284
REMARK  123  A    between atoms: _289  and  _291
REMARK  124  A    between atoms: _291  and  _292
REMARK  125  A    between atoms: _291  and  _294
REMARK  126  A    between atoms: _294  and  _295
REMARK  127  A    between atoms: _298  and  _300
REMARK  128  A    between atoms: _300  and  _301
REMARK  129  A    between atoms: _300  and  _303
REMARK  130  A    between atoms: _303  and  _304
REMARK  131  A    between atoms: _304  and  _305
REMARK  132  A    between atoms: _308  and  _310
REMARK  133  A    between atoms: _310  and  _311
REMARK  134  A    between atoms: _310  and  _313
REMARK  135  A    between atoms: _313  and  _314
REMARK  136  A    between atoms: _317  and  _319
REMARK  137  A    between atoms: _319  and  _320
REMARK  138  A    between atoms: _319  and  _322
REMARK  139  A    between atoms: _322  and  _323
REMARK  140  A    between atoms: _323  and  _324
REMARK  141  A    between atoms: _327  and  _329
REMARK  142  A    between atoms: _329  and  _330
REMARK  143  A    between atoms: _329  and  _332
REMARK  144  A    between atoms: _332  and  _333
REMARK  145  A    between atoms: _336  and  _338
REMARK  146  A    between atoms: _338  and  _339
REMARK  147  A    between atoms: _338  and  _341
REMARK  148  A    between atoms: _341  and  _342
REMARK  149  A    between atoms: _345  and  _347
REMARK  150  A    between atoms: _347  and  _348
REMARK  151  A    between atoms: _351  and  _353
REMARK  152  A    between atoms: _353  and  _354
REMARK  153  A    between atoms: _353  and  _356
REMARK  154  A    between atoms: _356  and  _357
REMARK  155  A    between atoms: _360  and  _362
REMARK  156  A    between atoms: _362  and  _363
REMARK  157  A    between atoms: _362  and  _365
REMARK  158  A    between atoms: _365  and  _366
REMARK  159  A    between atoms: _369  and  _371
REMARK  160  A    between atoms: _371  and  _372
REMARK  161  A    between atoms: _371  and  _374
REMARK  162  A    between atoms: _374  and  _375
REMARK  163  A    between atoms: _375  and  _376
REMARK  164  A    between atoms: _376  and  _377
REMARK  165  A    between atoms: _386  and  _388
REMARK  166  A    between atoms: _388  and  _389
REMARK  167  A    between atoms: _388  and  _391
REMARK  168  A    between atoms: _391  and  _392
REMARK  169  A    between atoms: _392  and  _393
REMARK  170  A    between atoms: _398  and  _400
REMARK  171  A    between atoms: _400  and  _401
REMARK  172  A    between atoms: _400  and  _403
REMARK  173  A    between atoms: _403  and  _404
REMARK  174  A    between atoms: _404  and  _405
REMARK  175  A    between atoms: _410  and  _412
REMARK  176  A    between atoms: _412  and  _413
REMARK  177  A    between atoms: _412  and  _415
REMARK  178  A    between atoms: _415  and  _416
REMARK  179  A    between atoms: _426  and  _428
REMARK  180  A    between atoms: _428  and  _429
REMARK  181  A    between atoms: _428  and  _431
REMARK  182  A    between atoms: _431  and  _432
REMARK  183  A    between atoms: _435  and  _437
REMARK  184  A    between atoms: _437  and  _438
REMARK  185  A    between atoms: _437  and  _440
REMARK  186  A    between atoms: _440  and  _441
REMARK  187  A    between atoms: _444  and  _446
REMARK  188  A    between atoms: _446  and  _447
REMARK  189  A    between atoms: _446  and  _449
REMARK  190  A    between atoms: _449  and  _450
REMARK  191  A    between atoms: _453  and  _455
REMARK  192  A    between atoms: _455  and  _456
REMARK  193  A    between atoms: _455  and  _458
REMARK  194  A    between atoms: _458  and  _459
REMARK  195  A    between atoms: _459  and  _460
REMARK  196  A    between atoms: _460  and  _461
REMARK  197  A    between atoms: _461  and  _462
REMARK  198  A    between atoms: _466  and  _468
REMARK  199  A    between atoms: _468  and  _469
REMARK  200  A    between atoms: _468  and  _471
REMARK  201  A    between atoms: _471  and  _472
REMARK  202  A    between atoms: _472  and  _473
REMARK  203  A    between atoms: _473  and  _474
REMARK  204  A    between atoms: _483  and  _485
REMARK  205  A    between atoms: _485  and  _486
REMARK  206  A    between atoms: _485  and  _488
REMARK  207  A    between atoms: _491  and  _493
REMARK  208  A    between atoms: _493  and  _494
REMARK  209  A    between atoms: _493  and  _496
REMARK  210  A    between atoms: _496  and  _497
REMARK  211  A    between atoms: _497  and  _498
REMARK  212  A    between atoms: _501  and  _503
REMARK  213  A    between atoms: _503  and  _504
REMARK  214  A    between atoms: _503  and  _506
REMARK  215  A    between atoms: _508  and  _510
REMARK  216  A    between atoms: _510  and  _511
REMARK  217  A    between atoms: _510  and  _513
REMARK  218  A    between atoms: _516  and  _518
REMARK  219  A    between atoms: _518  and  _519
REMARK  220  A    between atoms: _518  and  _521
REMARK  221  A    between atoms: _521  and  _522
REMARK  222  A    between atoms: _524  and  _526
REMARK  223  A    between atoms: _526  and  _527
REMARK  224  A    between atoms: _526  and  _529
REMARK  225  A    between atoms: _529  and  _530
REMARK  226  A    between atoms: _533  and  _535
REMARK  227  A    between atoms: _535  and  _536
REMARK  228  A    between atoms: _535  and  _538
REMARK  229  A    between atoms: _538  and  _539
REMARK  230  A    between atoms: _539  and  _540
REMARK  231  A    between atoms: _540  and  _541
REMARK  232  A    between atoms: _550  and  _552
REMARK  233  A    between atoms: _552  and  _553
REMARK  234  A    between atoms: _552  and  _555
REMARK  235  A    between atoms: _555  and  _556
REMARK  236  A    between atoms: _561  and  _562
REMARK  237  A    between atoms: _564  and  _566
REMARK  238  A    between atoms: _566  and  _567
REMARK  239  A    between atoms: _566  and  _569
REMARK  240  A    between atoms: _569  and  _570
REMARK  241  A    between atoms: _570  and  _571
REMARK                            x       y       z     vdW  Elec       q    Type
REMARK                         _______ _______ _______ _____ _____    ______ ____
ROOT
ATOM      1  O   HOH     1      -4.110  -6.510  28.029  0.00  0.00    +0.000 OA
ENDROOT
TORSDOF 0
REMARK  Name = ../refined-set-2016/2qm9/2qm9_pocket.pdb
REMARK  241 active torsions:
REMARK  status: ('A' for Active; 'I' for Inactive)
REMARK    1  A    between atoms: _1  and  _3
REMARK    2  A    between atoms: _3  and  _4
REMARK    3  A    between atoms: _3  and  _6
REMARK    4  A    between atoms: _6  and  _7
REMARK    5  A    between atoms: _10  and  _12
REMARK    6  A    between atoms: _12  and  _13
REMARK    7  A    between atoms: _12  and  _15
REMARK    8  A    between atoms: _15  and  _16
REMARK    9  A    between atoms: _18  and  _20
REMARK   10  A    between atoms: _20  and  _21
REMARK   11  A    between atoms: _20  and  _23
REMARK   12  A    between atoms: _23  and  _24
REMARK   13  A    between atoms: _30  and  _32
REMARK   14  A    between atoms: _32  and  _33
REMARK   15  A    between atoms: _32  and  _35
REMARK   16  A    between atoms: _35  and  _36
REMARK   17  A    between atoms: _41  and  _42
REMARK   18  A    between atoms: _44  and  _46
REMARK   19  A    between atoms: _46  and  _47
REMARK   20  A    between atoms: _46  and  _49
REMARK   21  A    between atoms: _49  and  _50
REMARK   22  A    between atoms: _50  and  _51
REMARK   23  A    between atoms: _53  and  _55
REMARK   24  A    between atoms: _55  and  _56
REMARK   25  A    between atoms: _55  and  _58
REMARK   26  A    between atoms: _58  and  _59
REMARK   27  A    between atoms: _59  and  _60
REMARK   28  A    between atoms: _60  and  _61
REMARK   29  A    between atoms: _61  and  _62
REMARK   30  A    between atoms: _66  and  _68
REMARK   31  A    between atoms: _68  and  _69
REMARK   32  A    between atoms: _68  and  _71
REMARK   33  A    between atoms: _74  and  _76
REMARK   34  A    between atoms: _76  and  _77
REMARK   35  A    between atoms: _79  and  _81
REMARK   36  A    between atoms: _81  and  _82
REMARK   37  A    between atoms: _81  and  _84
REMARK   38  A    between atoms: _87  and  _89
REMARK   39  A    between atoms: _89  and  _90
REMARK   40  A    between atoms: _92  and  _94
REMARK   41  A    between atoms: _94  and  _95
REMARK   42  A    between atoms: _94  and  _97
REMARK   43  A    between atoms: _97  and  _98
REMARK   44  A    between atoms: _101  and  _103
REMARK   45  A    between atoms: _103  and  _104
REMARK   46  A    between atoms: _103  and  _106
REMARK   47  A    between atoms: _106  and  _107
REMARK   48  A    between atoms: _107  and  _108
REMARK   49  A    between atoms: _108  and  _109
REMARK   50  A    between atoms: _118  and  _120
REMARK   51  A    between atoms: _120  and  _121
REMARK   52  A    between atoms: _120  and  _123
REMARK   53  A    between atoms: _126  and  _128
REMARK   54  A    between atoms: _128  and  _129
REMARK   55  A    between atoms: _132  and  _134
REMARK   56  A    between atoms: _134  and  _135
REMARK   57  A    between atoms: _137  and  _139
REMARK   58  A    between atoms: _139  and  _140
REMARK   59  A    between atoms: _139  and  _142
REMARK   60  A    between atoms: _142  and  _143
REMARK   61  A    between atoms: _143  and  _144
REMARK   62  A    between atoms: _146  and  _148
REMARK   63  A    between atoms: _148  and  _149
REMARK   64  A    between atoms: _152  and  _154
REMARK   65  A    between atoms: _154  and  _155
REMARK   66  A    between atoms: _154  and  _157
REMARK   67  A    between atoms: _157  and  _158
REMARK   68  A    between atoms: _158  and  _159
REMARK   69  A    between atoms: _159  and  _160
REMARK   70  A    between atoms: _160  and  _161
REMARK   71  A    between atoms: _166  and  _167
REMARK   72  A    between atoms: _172  and  _174
REMARK   73  A    between atoms: _174  and  _175
REMARK   74  A    between atoms: _174  and  _177
REMARK   75  A    between atoms: _177  and  _178
REMARK   76  A    between atoms: _183  and  _185
REMARK   77  A    between atoms: _185  and  _186
REMARK   78  A    between atoms: _185  and  _188
REMARK   79  A    between atoms: _188  and  _189
REMARK   80  A    between atoms: _189  and  _190
REMARK   81  A    between atoms: _192  and  _194
REMARK   82  A    between atoms: _194  and  _195
REMARK   83  A    between atoms: _194  and  _197
REMARK   84  A    between atoms: _197  and  _198
REMARK   85  A    between atoms: _201  and  _203
REMARK   86  A    between atoms: _203  and  _204
REMARK   87  A    between atoms: _203  and  _206
REMARK   88  A    between atoms: _206  and  _207
REMARK   89  A    between atoms: _207  and  _208
REMARK   90  A    between atoms: _208  and  _209
REMARK   91  A    between atoms: _218  and  _220
REMARK   92  A    between atoms: _220  and  _221
REMARK   93  A    between atoms: _220  and  _223
REMARK   94  A    between atoms: _223  and  _224
REMARK   95  A    between atoms: _226  and  _228
REMARK   96  A    between atoms: _228  and  _229
REMARK   97  A    between atoms: _228  and  _231
REMARK   98  A    between atoms: _231  and  _232
REMARK   99  A    between atoms: _232  and  _233
REMARK  100  A    between atoms: _236  and  _238
REMARK  101  A    between atoms: _238  and  _239
REMARK  102  A    between atoms: _238  and  _241
REMARK  103  A    between atoms: _241  and  _242
REMARK  104  A    between atoms: _244  and  _246
REMARK  105  A    between atoms: _246  and  _247
REMARK  106  A    between atoms: _246  and  _249
REMARK  107  A    between atoms: _249  and  _250
REMARK  108  A    between atoms: _253  and  _255
REMARK  109  A    between atoms: _255  and  _256
REMARK  110  A    between atoms: _255  and  _258
REMARK  111  A    between atoms: _258  and  _259
REMARK  112  A    between atoms: _265  and  _267
REMARK  113  A    between atoms: _267  and  _268
REMARK  114  A    between atoms: _267  and  _270
REMARK  115  A    between atoms: _270  and  _271
REMARK  116  A    between atoms: _271  and  _272
REMARK  117  A    between atoms: _272  and  _273
REMARK  118  A    between atoms: _273  and  _274
REMARK  119  A    between atoms: _278  and  _280
REMARK  120  A    between atoms: _280  and  _281
REMARK  121  A    between atoms: _280  and  _283
REMARK  122  A    between atoms: _283  and  _284
REMARK  123  A    between atoms: _289  and  _291
REMARK  124  A    between atoms: _291  and  _292
REMARK  125  A    between atoms: _291  and  _294
REMARK  126  A    between atoms: _294  and  _295
REMARK  127  A    between atoms: _298  and  _300
REMARK  128  A    between atoms: _300  and  _301
REMARK  129  A    between atoms: _300  and  _303
REMARK  130  A    between atoms: _303  and  _304
REMARK  131  A    between atoms: _304  and  _305
REMARK  132  A    between atoms: _308  and  _310
REMARK  133  A    between atoms: _310  and  _311
REMARK  134  A    between atoms: _310  and  _313
REMARK  135  A    between atoms: _313  and  _314
REMARK  136  A    between atoms: _317  and  _319
REMARK  137  A    between atoms: _319  and  _320
REMARK  138  A    between atoms: _319  and  _322
REMARK  139  A    between atoms: _322  and  _323
REMARK  140  A    between atoms: _323  and  _324
REMARK  141  A    between atoms: _327  and  _329
REMARK  142  A    between atoms: _329  and  _330
REMARK  143  A    between atoms: _329  and  _332
REMARK  144  A    between atoms: _332  and  _333
REMARK  145  A    between atoms: _336  and  _338
REMARK  146  A    between atoms: _338  and  _339
REMARK  147  A    between atoms: _338  and  _341
REMARK  148  A    between atoms: _341  and  _342
REMARK  149  A    between atoms: _345  and  _347
REMARK  150  A    between atoms: _347  and  _348
REMARK  151  A    between atoms: _351  and  _353
REMARK  152  A    between atoms: _353  and  _354
REMARK  153  A    between atoms: _353  and  _356
REMARK  154  A    between atoms: _356  and  _357
REMARK  155  A    between atoms: _360  and  _362
REMARK  156  A    between atoms: _362  and  _363
REMARK  157  A    between atoms: _362  and  _365
REMARK  158  A    between atoms: _365  and  _366
REMARK  159  A    between atoms: _369  and  _371
REMARK  160  A    between atoms: _371  and  _372
REMARK  161  A    between atoms: _371  and  _374
REMARK  162  A    between atoms: _374  and  _375
REMARK  163  A    between atoms: _375  and  _376
REMARK  164  A    between atoms: _376  and  _377
REMARK  165  A    between atoms: _386  and  _388
REMARK  166  A    between atoms: _388  and  _389
REMARK  167  A    between atoms: _388  and  _391
REMARK  168  A    between atoms: _391  and  _392
REMARK  169  A    between atoms: _392  and  _393
REMARK  170  A    between atoms: _398  and  _400
REMARK  171  A    between atoms: _400  and  _401
REMARK  172  A    between atoms: _400  and  _403
REMARK  173  A    between atoms: _403  and  _404
REMARK  174  A    between atoms: _404  and  _405
REMARK  175  A    between atoms: _410  and  _412
REMARK  176  A    between atoms: _412  and  _413
REMARK  177  A    between atoms: _412  and  _415
REMARK  178  A    between atoms: _415  and  _416
REMARK  179  A    between atoms: _426  and  _428
REMARK  180  A    between atoms: _428  and  _429
REMARK  181  A    between atoms: _428  and  _431
REMARK  182  A    between atoms: _431  and  _432
REMARK  183  A    between atoms: _435  and  _437
REMARK  184  A    between atoms: _437  and  _438
REMARK  185  A    between atoms: _437  and  _440
REMARK  186  A    between atoms: _440  and  _441
REMARK  187  A    between atoms: _444  and  _446
REMARK  188  A    between atoms: _446  and  _447
REMARK  189  A    between atoms: _446  and  _449
REMARK  190  A    between atoms: _449  and  _450
REMARK  191  A    between atoms: _453  and  _455
REMARK  192  A    between atoms: _455  and  _456
REMARK  193  A    between atoms: _455  and  _458
REMARK  194  A    between atoms: _458  and  _459
REMARK  195  A    between atoms: _459  and  _460
REMARK  196  A    between atoms: _460  and  _461
REMARK  197  A    between atoms: _461  and  _462
REMARK  198  A    between atoms: _466  and  _468
REMARK  199  A    between atoms: _468  and  _469
REMARK  200  A    between atoms: _468  and  _471
REMARK  201  A    between atoms: _471  and  _472
REMARK  202  A    between atoms: _472  and  _473
REMARK  203  A    between atoms: _473  and  _474
REMARK  204  A    between atoms: _483  and  _485
REMARK  205  A    between atoms: _485  and  _486
REMARK  206  A    between atoms: _485  and  _488
REMARK  207  A    between atoms: _491  and  _493
REMARK  208  A    between atoms: _493  and  _494
REMARK  209  A    between atoms: _493  and  _496
REMARK  210  A    between atoms: _496  and  _497
REMARK  211  A    between atoms: _497  and  _498
REMARK  212  A    between atoms: _501  and  _503
REMARK  213  A    between atoms: _503  and  _504
REMARK  214  A    between atoms: _503  and  _506
REMARK  215  A    between atoms: _508  and  _510
REMARK  216  A    between atoms: _510  and  _511
REMARK  217  A    between atoms: _510  and  _513
REMARK  218  A    between atoms: _516  and  _518
REMARK  219  A    between atoms: _518  and  _519
REMARK  220  A    between atoms: _518  and  _521
REMARK  221  A    between atoms: _521  and  _522
REMARK  222  A    between atoms: _524  and  _526
REMARK  223  A    between atoms: _526  and  _527
REMARK  224  A    between atoms: _526  and  _529
REMARK  225  A    between atoms: _529  and  _530
REMARK  226  A    between atoms: _533  and  _535
REMARK  227  A    between atoms: _535  and  _536
REMARK  228  A    between atoms: _535  and  _538
REMARK  229  A    between atoms: _538  and  _539
REMARK  230  A    between atoms: _539  and  _540
REMARK  231  A    between atoms: _540  and  _541
REMARK  232  A    between atoms: _550  and  _552
REMARK  233  A    between atoms: _552  and  _553
REMARK  234  A    between atoms: _552  and  _555
REMARK  235  A    between atoms: _555  and  _556
REMARK  236  A    between atoms: _561  and  _562
REMARK  237  A    between atoms: _564  and  _566
REMARK  238  A    between atoms: _566  and  _567
REMARK  239  A    between atoms: _566  and  _569
REMARK  240  A    between atoms: _569  and  _570
REMARK  241  A    between atoms: _570  and  _571
REMARK                            x       y       z     vdW  Elec       q    Type
REMARK                         _______ _______ _______ _____ _____    ______ ____
ROOT
ATOM      1  O   HOH     1      -7.768  -6.567  14.433  0.00  0.00    +0.000 OA
ENDROOT
TORSDOF 0
REMARK  Name = ../refined-set-2016/2qm9/2qm9_pocket.pdb
REMARK  241 active torsions:
REMARK  status: ('A' for Active; 'I' for Inactive)
REMARK    1  A    between atoms: _1  and  _3
REMARK    2  A    between atoms: _3  and  _4
REMARK    3  A    between atoms: _3  and  _6
REMARK    4  A    between atoms: _6  and  _7
REMARK    5  A    between atoms: _10  and  _12
REMARK    6  A    between atoms: _12  and  _13
REMARK    7  A    between atoms: _12  and  _15
REMARK    8  A    between atoms: _15  and  _16
REMARK    9  A    between atoms: _18  and  _20
REMARK   10  A    between atoms: _20  and  _21
REMARK   11  A    between atoms: _20  and  _23
REMARK   12  A    between atoms: _23  and  _24
REMARK   13  A    between atoms: _30  and  _32
REMARK   14  A    between atoms: _32  and  _33
REMARK   15  A    between atoms: _32  and  _35
REMARK   16  A    between atoms: _35  and  _36
REMARK   17  A    between atoms: _41  and  _42
REMARK   18  A    between atoms: _44  and  _46
REMARK   19  A    between atoms: _46  and  _47
REMARK   20  A    between atoms: _46  and  _49
REMARK   21  A    between atoms: _49  and  _50
REMARK   22  A    between atoms: _50  and  _51
REMARK   23  A    between atoms: _53  and  _55
REMARK   24  A    between atoms: _55  and  _56
REMARK   25  A    between atoms: _55  and  _58
REMARK   26  A    between atoms: _58  and  _59
REMARK   27  A    between atoms: _59  and  _60
REMARK   28  A    between atoms: _60  and  _61
REMARK   29  A    between atoms: _61  and  _62
REMARK   30  A    between atoms: _66  and  _68
REMARK   31  A    between atoms: _68  and  _69
REMARK   32  A    between atoms: _68  and  _71
REMARK   33  A    between atoms: _74  and  _76
REMARK   34  A    between atoms: _76  and  _77
REMARK   35  A    between atoms: _79  and  _81
REMARK   36  A    between atoms: _81  and  _82
REMARK   37  A    between atoms: _81  and  _84
REMARK   38  A    between atoms: _87  and  _89
REMARK   39  A    between atoms: _89  and  _90
REMARK   40  A    between atoms: _92  and  _94
REMARK   41  A    between atoms: _94  and  _95
REMARK   42  A    between atoms: _94  and  _97
REMARK   43  A    between atoms: _97  and  _98
REMARK   44  A    between atoms: _101  and  _103
REMARK   45  A    between atoms: _103  and  _104
REMARK   46  A    between atoms: _103  and  _106
REMARK   47  A    between atoms: _106  and  _107
REMARK   48  A    between atoms: _107  and  _108
REMARK   49  A    between atoms: _108  and  _109
REMARK   50  A    between atoms: _118  and  _120
REMARK   51  A    between atoms: _120  and  _121
REMARK   52  A    between atoms: _120  and  _123
REMARK   53  A    between atoms: _126  and  _128
REMARK   54  A    between atoms: _128  and  _129
REMARK   55  A    between atoms: _132  and  _134
REMARK   56  A    between atoms: _134  and  _135
REMARK   57  A    between atoms: _137  and  _139
REMARK   58  A    between atoms: _139  and  _140
REMARK   59  A    between atoms: _139  and  _142
REMARK   60  A    between atoms: _142  and  _143
REMARK   61  A    between atoms: _143  and  _144
REMARK   62  A    between atoms: _146  and  _148
REMARK   63  A    between atoms: _148  and  _149
REMARK   64  A    between atoms: _152  and  _154
REMARK   65  A    between atoms: _154  and  _155
REMARK   66  A    between atoms: _154  and  _157
REMARK   67  A    between atoms: _157  and  _158
REMARK   68  A    between atoms: _158  and  _159
REMARK   69  A    between atoms: _159  and  _160
REMARK   70  A    between atoms: _160  and  _161
REMARK   71  A    between atoms: _166  and  _167
REMARK   72  A    between atoms: _172  and  _174
REMARK   73  A    between atoms: _174  and  _175
REMARK   74  A    between atoms: _174  and  _177
REMARK   75  A    between atoms: _177  and  _178
REMARK   76  A    between atoms: _183  and  _185
REMARK   77  A    between atoms: _185  and  _186
REMARK   78  A    between atoms: _185  and  _188
REMARK   79  A    between atoms: _188  and  _189
REMARK   80  A    between atoms: _189  and  _190
REMARK   81  A    between atoms: _192  and  _194
REMARK   82  A    between atoms: _194  and  _195
REMARK   83  A    between atoms: _194  and  _197
REMARK   84  A    between atoms: _197  and  _198
REMARK   85  A    between atoms: _201  and  _203
REMARK   86  A    between atoms: _203  and  _204
REMARK   87  A    between atoms: _203  and  _206
REMARK   88  A    between atoms: _206  and  _207
REMARK   89  A    between atoms: _207  and  _208
REMARK   90  A    between atoms: _208  and  _209
REMARK   91  A    between atoms: _218  and  _220
REMARK   92  A    between atoms: _220  and  _221
REMARK   93  A    between atoms: _220  and  _223
REMARK   94  A    between atoms: _223  and  _224
REMARK   95  A    between atoms: _226  and  _228
REMARK   96  A    between atoms: _228  and  _229
REMARK   97  A    between atoms: _228  and  _231
REMARK   98  A    between atoms: _231  and  _232
REMARK   99  A    between atoms: _232  and  _233
REMARK  100  A    between atoms: _236  and  _238
REMARK  101  A    between atoms: _238  and  _239
REMARK  102  A    between atoms: _238  and  _241
REMARK  103  A    between atoms: _241  and  _242
REMARK  104  A    between atoms: _244  and  _246
REMARK  105  A    between atoms: _246  and  _247
REMARK  106  A    between atoms: _246  and  _249
REMARK  107  A    between atoms: _249  and  _250
REMARK  108  A    between atoms: _253  and  _255
REMARK  109  A    between atoms: _255  and  _256
REMARK  110  A    between atoms: _255  and  _258
REMARK  111  A    between atoms: _258  and  _259
REMARK  112  A    between atoms: _265  and  _267
REMARK  113  A    between atoms: _267  and  _268
REMARK  114  A    between atoms: _267  and  _270
REMARK  115  A    between atoms: _270  and  _271
REMARK  116  A    between atoms: _271  and  _272
REMARK  117  A    between atoms: _272  and  _273
REMARK  118  A    between atoms: _273  and  _274
REMARK  119  A    between atoms: _278  and  _280
REMARK  120  A    between atoms: _280  and  _281
REMARK  121  A    between atoms: _280  and  _283
REMARK  122  A    between atoms: _283  and  _284
REMARK  123  A    between atoms: _289  and  _291
REMARK  124  A    between atoms: _291  and  _292
REMARK  125  A    between atoms: _291  and  _294
REMARK  126  A    between atoms: _294  and  _295
REMARK  127  A    between atoms: _298  and  _300
REMARK  128  A    between atoms: _300  and  _301
REMARK  129  A    between atoms: _300  and  _303
REMARK  130  A    between atoms: _303  and  _304
REMARK  131  A    between atoms: _304  and  _305
REMARK  132  A    between atoms: _308  and  _310
REMARK  133  A    between atoms: _310  and  _311
REMARK  134  A    between atoms: _310  and  _313
REMARK  135  A    between atoms: _313  and  _314
REMARK  136  A    between atoms: _317  and  _319
REMARK  137  A    between atoms: _319  and  _320
REMARK  138  A    between atoms: _319  and  _322
REMARK  139  A    between atoms: _322  and  _323
REMARK  140  A    between atoms: _323  and  _324
REMARK  141  A    between atoms: _327  and  _329
REMARK  142  A    between atoms: _329  and  _330
REMARK  143  A    between atoms: _329  and  _332
REMARK  144  A    between atoms: _332  and  _333
REMARK  145  A    between atoms: _336  and  _338
REMARK  146  A    between atoms: _338  and  _339
REMARK  147  A    between atoms: _338  and  _341
REMARK  148  A    between atoms: _341  and  _342
REMARK  149  A    between atoms: _345  and  _347
REMARK  150  A    between atoms: _347  and  _348
REMARK  151  A    between atoms: _351  and  _353
REMARK  152  A    between atoms: _353  and  _354
REMARK  153  A    between atoms: _353  and  _356
REMARK  154  A    between atoms: _356  and  _357
REMARK  155  A    between atoms: _360  and  _362
REMARK  156  A    between atoms: _362  and  _363
REMARK  157  A    between atoms: _362  and  _365
REMARK  158  A    between atoms: _365  and  _366
REMARK  159  A    between atoms: _369  and  _371
REMARK  160  A    between atoms: _371  and  _372
REMARK  161  A    between atoms: _371  and  _374
REMARK  162  A    between atoms: _374  and  _375
REMARK  163  A    between atoms: _375  and  _376
REMARK  164  A    between atoms: _376  and  _377
REMARK  165  A    between atoms: _386  and  _388
REMARK  166  A    between atoms: _388  and  _389
REMARK  167  A    between atoms: _388  and  _391
REMARK  168  A    between atoms: _391  and  _392
REMARK  169  A    between atoms: _392  and  _393
REMARK  170  A    between atoms: _398  and  _400
REMARK  171  A    between atoms: _400  and  _401
REMARK  172  A    between atoms: _400  and  _403
REMARK  173  A    between atoms: _403  and  _404
REMARK  174  A    between atoms: _404  and  _405
REMARK  175  A    between atoms: _410  and  _412
REMARK  176  A    between atoms: _412  and  _413
REMARK  177  A    between atoms: _412  and  _415
REMARK  178  A    between atoms: _415  and  _416
REMARK  179  A    between atoms: _426  and  _428
REMARK  180  A    between atoms: _428  and  _429
REMARK  181  A    between atoms: _428  and  _431
REMARK  182  A    between atoms: _431  and  _432
REMARK  183  A    between atoms: _435  and  _437
REMARK  184  A    between atoms: _437  and  _438
REMARK  185  A    between atoms: _437  and  _440
REMARK  186  A    between atoms: _440  and  _441
REMARK  187  A    between atoms: _444  and  _446
REMARK  188  A    between atoms: _446  and  _447
REMARK  189  A    between atoms: _446  and  _449
REMARK  190  A    between atoms: _449  and  _450
REMARK  191  A    between atoms: _453  and  _455
REMARK  192  A    between atoms: _455  and  _456
REMARK  193  A    between atoms: _455  and  _458
REMARK  194  A    between atoms: _458  and  _459
REMARK  195  A    between atoms: _459  and  _460
REMARK  196  A    between atoms: _460  and  _461
REMARK  197  A    between atoms: _461  and  _462
REMARK  198  A    between atoms: _466  and  _468
REMARK  199  A    between atoms: _468  and  _469
REMARK  200  A    between atoms: _468  and  _471
REMARK  201  A    between atoms: _471  and  _472
REMARK  202  A    between atoms: _472  and  _473
REMARK  203  A    between atoms: _473  and  _474
REMARK  204  A    between atoms: _483  and  _485
REMARK  205  A    between atoms: _485  and  _486
REMARK  206  A    between atoms: _485  and  _488
REMARK  207  A    between atoms: _491  and  _493
REMARK  208  A    between atoms: _493  and  _494
REMARK  209  A    between atoms: _493  and  _496
REMARK  210  A    between atoms: _496  and  _497
REMARK  211  A    between atoms: _497  and  _498
REMARK  212  A    between atoms: _501  and  _503
REMARK  213  A    between atoms: _503  and  _504
REMARK  214  A    between atoms: _503  and  _506
REMARK  215  A    between atoms: _508  and  _510
REMARK  216  A    between atoms: _510  and  _511
REMARK  217  A    between atoms: _510  and  _513
REMARK  218  A    between atoms: _516  and  _518
REMARK  219  A    between atoms: _518  and  _519
REMARK  220  A    between atoms: _518  and  _521
REMARK  221  A    between atoms: _521  and  _522
REMARK  222  A    between atoms: _524  and  _526
REMARK  223  A    between atoms: _526  and  _527
REMARK  224  A    between atoms: _526  and  _529
REMARK  225  A    between atoms: _529  and  _530
REMARK  226  A    between atoms: _533  and  _535
REMARK  227  A    between atoms: _535  and  _536
REMARK  228  A    between atoms: _535  and  _538
REMARK  229  A    between atoms: _538  and  _539
REMARK  230  A    between atoms: _539  and  _540
REMARK  231  A    between atoms: _540  and  _541
REMARK  232  A    between atoms: _550  and  _552
REMARK  233  A    between atoms: _552  and  _553
REMARK  234  A    between atoms: _552  and  _555
REMARK  235  A    between atoms: _555  and  _556
REMARK  236  A    between atoms: _561  and  _562
REMARK  237  A    between atoms: _564  and  _566
REMARK  238  A    between atoms: _566  and  _567
REMARK  239  A    between atoms: _566  and  _569
REMARK  240  A    between atoms: _569  and  _570
REMARK  241  A    between atoms: _570  and  _571
REMARK                            x       y       z     vdW  Elec       q    Type
REMARK                         _______ _______ _______ _____ _____    ______ ____
ROOT
ATOM      1  O   HOH     1     -16.088 -18.361  23.258  0.00  0.00    +0.000 OA
ENDROOT
TORSDOF 0
REMARK  Name = ../refined-set-2016/2qm9/2qm9_pocket.pdb
REMARK  241 active torsions:
REMARK  status: ('A' for Active; 'I' for Inactive)
REMARK    1  A    between atoms: _1  and  _3
REMARK    2  A    between atoms: _3  and  _4
REMARK    3  A    between atoms: _3  and  _6
REMARK    4  A    between atoms: _6  and  _7
REMARK    5  A    between atoms: _10  and  _12
REMARK    6  A    between atoms: _12  and  _13
REMARK    7  A    between atoms: _12  and  _15
REMARK    8  A    between atoms: _15  and  _16
REMARK    9  A    between atoms: _18  and  _20
REMARK   10  A    between atoms: _20  and  _21
REMARK   11  A    between atoms: _20  and  _23
REMARK   12  A    between atoms: _23  and  _24
REMARK   13  A    between atoms: _30  and  _32
REMARK   14  A    between atoms: _32  and  _33
REMARK   15  A    between atoms: _32  and  _35
REMARK   16  A    between atoms: _35  and  _36
REMARK   17  A    between atoms: _41  and  _42
REMARK   18  A    between atoms: _44  and  _46
REMARK   19  A    between atoms: _46  and  _47
REMARK   20  A    between atoms: _46  and  _49
REMARK   21  A    between atoms: _49  and  _50
REMARK   22  A    between atoms: _50  and  _51
REMARK   23  A    between atoms: _53  and  _55
REMARK   24  A    between atoms: _55  and  _56
REMARK   25  A    between atoms: _55  and  _58
REMARK   26  A    between atoms: _58  and  _59
REMARK   27  A    between atoms: _59  and  _60
REMARK   28  A    between atoms: _60  and  _61
REMARK   29  A    between atoms: _61  and  _62
REMARK   30  A    between atoms: _66  and  _68
REMARK   31  A    between atoms: _68  and  _69
REMARK   32  A    between atoms: _68  and  _71
REMARK   33  A    between atoms: _74  and  _76
REMARK   34  A    between atoms: _76  and  _77
REMARK   35  A    between atoms: _79  and  _81
REMARK   36  A    between atoms: _81  and  _82
REMARK   37  A    between atoms: _81  and  _84
REMARK   38  A    between atoms: _87  and  _89
REMARK   39  A    between atoms: _89  and  _90
REMARK   40  A    between atoms: _92  and  _94
REMARK   41  A    between atoms: _94  and  _95
REMARK   42  A    between atoms: _94  and  _97
REMARK   43  A    between atoms: _97  and  _98
REMARK   44  A    between atoms: _101  and  _103
REMARK   45  A    between atoms: _103  and  _104
REMARK   46  A    between atoms: _103  and  _106
REMARK   47  A    between atoms: _106  and  _107
REMARK   48  A    between atoms: _107  and  _108
REMARK   49  A    between atoms: _108  and  _109
REMARK   50  A    between atoms: _118  and  _120
REMARK   51  A    between atoms: _120  and  _121
REMARK   52  A    between atoms: _120  and  _123
REMARK   53  A    between atoms: _126  and  _128
REMARK   54  A    between atoms: _128  and  _129
REMARK   55  A    between atoms: _132  and  _134
REMARK   56  A    between atoms: _134  and  _135
REMARK   57  A    between atoms: _137  and  _139
REMARK   58  A    between atoms: _139  and  _140
REMARK   59  A    between atoms: _139  and  _142
REMARK   60  A    between atoms: _142  and  _143
REMARK   61  A    between atoms: _143  and  _144
REMARK   62  A    between atoms: _146  and  _148
REMARK   63  A    between atoms: _148  and  _149
REMARK   64  A    between atoms: _152  and  _154
REMARK   65  A    between atoms: _154  and  _155
REMARK   66  A    between atoms: _154  and  _157
REMARK   67  A    between atoms: _157  and  _158
REMARK   68  A    between atoms: _158  and  _159
REMARK   69  A    between atoms: _159  and  _160
REMARK   70  A    between atoms: _160  and  _161
REMARK   71  A    between atoms: _166  and  _167
REMARK   72  A    between atoms: _172  and  _174
REMARK   73  A    between atoms: _174  and  _175
REMARK   74  A    between atoms: _174  and  _177
REMARK   75  A    between atoms: _177  and  _178
REMARK   76  A    between atoms: _183  and  _185
REMARK   77  A    between atoms: _185  and  _186
REMARK   78  A    between atoms: _185  and  _188
REMARK   79  A    between atoms: _188  and  _189
REMARK   80  A    between atoms: _189  and  _190
REMARK   81  A    between atoms: _192  and  _194
REMARK   82  A    between atoms: _194  and  _195
REMARK   83  A    between atoms: _194  and  _197
REMARK   84  A    between atoms: _197  and  _198
REMARK   85  A    between atoms: _201  and  _203
REMARK   86  A    between atoms: _203  and  _204
REMARK   87  A    between atoms: _203  and  _206
REMARK   88  A    between atoms: _206  and  _207
REMARK   89  A    between atoms: _207  and  _208
REMARK   90  A    between atoms: _208  and  _209
REMARK   91  A    between atoms: _218  and  _220
REMARK   92  A    between atoms: _220  and  _221
REMARK   93  A    between atoms: _220  and  _223
REMARK   94  A    between atoms: _223  and  _224
REMARK   95  A    between atoms: _226  and  _228
REMARK   96  A    between atoms: _228  and  _229
REMARK   97  A    between atoms: _228  and  _231
REMARK   98  A    between atoms: _231  and  _232
REMARK   99  A    between atoms: _232  and  _233
REMARK  100  A    between atoms: _236  and  _238
REMARK  101  A    between atoms: _238  and  _239
REMARK  102  A    between atoms: _238  and  _241
REMARK  103  A    between atoms: _241  and  _242
REMARK  104  A    between atoms: _244  and  _246
REMARK  105  A    between atoms: _246  and  _247
REMARK  106  A    between atoms: _246  and  _249
REMARK  107  A    between atoms: _249  and  _250
REMARK  108  A    between atoms: _253  and  _255
REMARK  109  A    between atoms: _255  and  _256
REMARK  110  A    between atoms: _255  and  _258
REMARK  111  A    between atoms: _258  and  _259
REMARK  112  A    between atoms: _265  and  _267
REMARK  113  A    between atoms: _267  and  _268
REMARK  114  A    between atoms: _267  and  _270
REMARK  115  A    between atoms: _270  and  _271
REMARK  116  A    between atoms: _271  and  _272
REMARK  117  A    between atoms: _272  and  _273
REMARK  118  A    between atoms: _273  and  _274
REMARK  119  A    between atoms: _278  and  _280
REMARK  120  A    between atoms: _280  and  _281
REMARK  121  A    between atoms: _280  and  _283
REMARK  122  A    between atoms: _283  and  _284
REMARK  123  A    between atoms: _289  and  _291
REMARK  124  A    between atoms: _291  and  _292
REMARK  125  A    between atoms: _291  and  _294
REMARK  126  A    between atoms: _294  and  _295
REMARK  127  A    between atoms: _298  and  _300
REMARK  128  A    between atoms: _300  and  _301
REMARK  129  A    between atoms: _300  and  _303
REMARK  130  A    between atoms: _303  and  _304
REMARK  131  A    between atoms: _304  and  _305
REMARK  132  A    between atoms: _308  and  _310
REMARK  133  A    between atoms: _310  and  _311
REMARK  134  A    between atoms: _310  and  _313
REMARK  135  A    between atoms: _313  and  _314
REMARK  136  A    between atoms: _317  and  _319
REMARK  137  A    between atoms: _319  and  _320
REMARK  138  A    between atoms: _319  and  _322
REMARK  139  A    between atoms: _322  and  _323
REMARK  140  A    between atoms: _323  and  _324
REMARK  141  A    between atoms: _327  and  _329
REMARK  142  A    between atoms: _329  and  _330
REMARK  143  A    between atoms: _329  and  _332
REMARK  144  A    between atoms: _332  and  _333
REMARK  145  A    between atoms: _336  and  _338
REMARK  146  A    between atoms: _338  and  _339
REMARK  147  A    between atoms: _338  and  _341
REMARK  148  A    between atoms: _341  and  _342
REMARK  149  A    between atoms: _345  and  _347
REMARK  150  A    between atoms: _347  and  _348
REMARK  151  A    between atoms: _351  and  _353
REMARK  152  A    between atoms: _353  and  _354
REMARK  153  A    between atoms: _353  and  _356
REMARK  154  A    between atoms: _356  and  _357
REMARK  155  A    between atoms: _360  and  _362
REMARK  156  A    between atoms: _362  and  _363
REMARK  157  A    between atoms: _362  and  _365
REMARK  158  A    between atoms: _365  and  _366
REMARK  159  A    between atoms: _369  and  _371
REMARK  160  A    between atoms: _371  and  _372
REMARK  161  A    between atoms: _371  and  _374
REMARK  162  A    between atoms: _374  and  _375
REMARK  163  A    between atoms: _375  and  _376
REMARK  164  A    between atoms: _376  and  _377
REMARK  165  A    between atoms: _386  and  _388
REMARK  166  A    between atoms: _388  and  _389
REMARK  167  A    between atoms: _388  and  _391
REMARK  168  A    between atoms: _391  and  _392
REMARK  169  A    between atoms: _392  and  _393
REMARK  170  A    between atoms: _398  and  _400
REMARK  171  A    between atoms: _400  and  _401
REMARK  172  A    between atoms: _400  and  _403
REMARK  173  A    between atoms: _403  and  _404
REMARK  174  A    between atoms: _404  and  _405
REMARK  175  A    between atoms: _410  and  _412
REMARK  176  A    between atoms: _412  and  _413
REMARK  177  A    between atoms: _412  and  _415
REMARK  178  A    between atoms: _415  and  _416
REMARK  179  A    between atoms: _426  and  _428
REMARK  180  A    between atoms: _428  and  _429
REMARK  181  A    between atoms: _428  and  _431
REMARK  182  A    between atoms: _431  and  _432
REMARK  183  A    between atoms: _435  and  _437
REMARK  184  A    between atoms: _437  and  _438
REMARK  185  A    between atoms: _437  and  _440
REMARK  186  A    between atoms: _440  and  _441
REMARK  187  A    between atoms: _444  and  _446
REMARK  188  A    between atoms: _446  and  _447
REMARK  189  A    between atoms: _446  and  _449
REMARK  190  A    between atoms: _449  and  _450
REMARK  191  A    between atoms: _453  and  _455
REMARK  192  A    between atoms: _455  and  _456
REMARK  193  A    between atoms: _455  and  _458
REMARK  194  A    between atoms: _458  and  _459
REMARK  195  A    between atoms: _459  and  _460
REMARK  196  A    between atoms: _460  and  _461
REMARK  197  A    between atoms: _461  and  _462
REMARK  198  A    between atoms: _466  and  _468
REMARK  199  A    between atoms: _468  and  _469
REMARK  200  A    between atoms: _468  and  _471
REMARK  201  A    between atoms: _471  and  _472
REMARK  202  A    between atoms: _472  and  _473
REMARK  203  A    between atoms: _473  and  _474
REMARK  204  A    between atoms: _483  and  _485
REMARK  205  A    between atoms: _485  and  _486
REMARK  206  A    between atoms: _485  and  _488
REMARK  207  A    between atoms: _491  and  _493
REMARK  208  A    between atoms: _493  and  _494
REMARK  209  A    between atoms: _493  and  _496
REMARK  210  A    between atoms: _496  and  _497
REMARK  211  A    between atoms: _497  and  _498
REMARK  212  A    between atoms: _501  and  _503
REMARK  213  A    between atoms: _503  and  _504
REMARK  214  A    between atoms: _503  and  _506
REMARK  215  A    between atoms: _508  and  _510
REMARK  216  A    between atoms: _510  and  _511
REMARK  217  A    between atoms: _510  and  _513
REMARK  218  A    between atoms: _516  and  _518
REMARK  219  A    between atoms: _518  and  _519
REMARK  220  A    between atoms: _518  and  _521
REMARK  221  A    between atoms: _521  and  _522
REMARK  222  A    between atoms: _524  and  _526
REMARK  223  A    between atoms: _526  and  _527
REMARK  224  A    between atoms: _526  and  _529
REMARK  225  A    between atoms: _529  and  _530
REMARK  226  A    between atoms: _533  and  _535
REMARK  227  A    between atoms: _535  and  _536
REMARK  228  A    between atoms: _535  and  _538
REMARK  229  A    between atoms: _538  and  _539
REMARK  230  A    between atoms: _539  and  _540
REMARK  231  A    between atoms: _540  and  _541
REMARK  232  A    between atoms: _550  and  _552
REMARK  233  A    between atoms: _552  and  _553
REMARK  234  A    between atoms: _552  and  _555
REMARK  235  A    between atoms: _555  and  _556
REMARK  236  A    between atoms: _561  and  _562
REMARK  237  A    between atoms: _564  and  _566
REMARK  238  A    between atoms: _566  and  _567
REMARK  239  A    between atoms: _566  and  _569
REMARK  240  A    between atoms: _569  and  _570
REMARK  241  A    between atoms: _570  and  _571
REMARK                            x       y       z     vdW  Elec       q    Type
REMARK                         _______ _______ _______ _____ _____    ______ ____
ROOT
ATOM      1  O   HOH     1     -15.593 -15.755  15.711  0.00  0.00    +0.000 OA
ENDROOT
TORSDOF 0
REMARK  Name = ../refined-set-2016/2qm9/2qm9_pocket.pdb
REMARK  241 active torsions:
REMARK  status: ('A' for Active; 'I' for Inactive)
REMARK    1  A    between atoms: _1  and  _3
REMARK    2  A    between atoms: _3  and  _4
REMARK    3  A    between atoms: _3  and  _6
REMARK    4  A    between atoms: _6  and  _7
REMARK    5  A    between atoms: _10  and  _12
REMARK    6  A    between atoms: _12  and  _13
REMARK    7  A    between atoms: _12  and  _15
REMARK    8  A    between atoms: _15  and  _16
REMARK    9  A    between atoms: _18  and  _20
REMARK   10  A    between atoms: _20  and  _21
REMARK   11  A    between atoms: _20  and  _23
REMARK   12  A    between atoms: _23  and  _24
REMARK   13  A    between atoms: _30  and  _32
REMARK   14  A    between atoms: _32  and  _33
REMARK   15  A    between atoms: _32  and  _35
REMARK   16  A    between atoms: _35  and  _36
REMARK   17  A    between atoms: _41  and  _42
REMARK   18  A    between atoms: _44  and  _46
REMARK   19  A    between atoms: _46  and  _47
REMARK   20  A    between atoms: _46  and  _49
REMARK   21  A    between atoms: _49  and  _50
REMARK   22  A    between atoms: _50  and  _51
REMARK   23  A    between atoms: _53  and  _55
REMARK   24  A    between atoms: _55  and  _56
REMARK   25  A    between atoms: _55  and  _58
REMARK   26  A    between atoms: _58  and  _59
REMARK   27  A    between atoms: _59  and  _60
REMARK   28  A    between atoms: _60  and  _61
REMARK   29  A    between atoms: _61  and  _62
REMARK   30  A    between atoms: _66  and  _68
REMARK   31  A    between atoms: _68  and  _69
REMARK   32  A    between atoms: _68  and  _71
REMARK   33  A    between atoms: _74  and  _76
REMARK   34  A    between atoms: _76  and  _77
REMARK   35  A    between atoms: _79  and  _81
REMARK   36  A    between atoms: _81  and  _82
REMARK   37  A    between atoms: _81  and  _84
REMARK   38  A    between atoms: _87  and  _89
REMARK   39  A    between atoms: _89  and  _90
REMARK   40  A    between atoms: _92  and  _94
REMARK   41  A    between atoms: _94  and  _95
REMARK   42  A    between atoms: _94  and  _97
REMARK   43  A    between atoms: _97  and  _98
REMARK   44  A    between atoms: _101  and  _103
REMARK   45  A    between atoms: _103  and  _104
REMARK   46  A    between atoms: _103  and  _106
REMARK   47  A    between atoms: _106  and  _107
REMARK   48  A    between atoms: _107  and  _108
REMARK   49  A    between atoms: _108  and  _109
REMARK   50  A    between atoms: _118  and  _120
REMARK   51  A    between atoms: _120  and  _121
REMARK   52  A    between atoms: _120  and  _123
REMARK   53  A    between atoms: _126  and  _128
REMARK   54  A    between atoms: _128  and  _129
REMARK   55  A    between atoms: _132  and  _134
REMARK   56  A    between atoms: _134  and  _135
REMARK   57  A    between atoms: _137  and  _139
REMARK   58  A    between atoms: _139  and  _140
REMARK   59  A    between atoms: _139  and  _142
REMARK   60  A    between atoms: _142  and  _143
REMARK   61  A    between atoms: _143  and  _144
REMARK   62  A    between atoms: _146  and  _148
REMARK   63  A    between atoms: _148  and  _149
REMARK   64  A    between atoms: _152  and  _154
REMARK   65  A    between atoms: _154  and  _155
REMARK   66  A    between atoms: _154  and  _157
REMARK   67  A    between atoms: _157  and  _158
REMARK   68  A    between atoms: _158  and  _159
REMARK   69  A    between atoms: _159  and  _160
REMARK   70  A    between atoms: _160  and  _161
REMARK   71  A    between atoms: _166  and  _167
REMARK   72  A    between atoms: _172  and  _174
REMARK   73  A    between atoms: _174  and  _175
REMARK   74  A    between atoms: _174  and  _177
REMARK   75  A    between atoms: _177  and  _178
REMARK   76  A    between atoms: _183  and  _185
REMARK   77  A    between atoms: _185  and  _186
REMARK   78  A    between atoms: _185  and  _188
REMARK   79  A    between atoms: _188  and  _189
REMARK   80  A    between atoms: _189  and  _190
REMARK   81  A    between atoms: _192  and  _194
REMARK   82  A    between atoms: _194  and  _195
REMARK   83  A    between atoms: _194  and  _197
REMARK   84  A    between atoms: _197  and  _198
REMARK   85  A    between atoms: _201  and  _203
REMARK   86  A    between atoms: _203  and  _204
REMARK   87  A    between atoms: _203  and  _206
REMARK   88  A    between atoms: _206  and  _207
REMARK   89  A    between atoms: _207  and  _208
REMARK   90  A    between atoms: _208  and  _209
REMARK   91  A    between atoms: _218  and  _220
REMARK   92  A    between atoms: _220  and  _221
REMARK   93  A    between atoms: _220  and  _223
REMARK   94  A    between atoms: _223  and  _224
REMARK   95  A    between atoms: _226  and  _228
REMARK   96  A    between atoms: _228  and  _229
REMARK   97  A    between atoms: _228  and  _231
REMARK   98  A    between atoms: _231  and  _232
REMARK   99  A    between atoms: _232  and  _233
REMARK  100  A    between atoms: _236  and  _238
REMARK  101  A    between atoms: _238  and  _239
REMARK  102  A    between atoms: _238  and  _241
REMARK  103  A    between atoms: _241  and  _242
REMARK  104  A    between atoms: _244  and  _246
REMARK  105  A    between atoms: _246  and  _247
REMARK  106  A    between atoms: _246  and  _249
REMARK  107  A    between atoms: _249  and  _250
REMARK  108  A    between atoms: _253  and  _255
REMARK  109  A    between atoms: _255  and  _256
REMARK  110  A    between atoms: _255  and  _258
REMARK  111  A    between atoms: _258  and  _259
REMARK  112  A    between atoms: _265  and  _267
REMARK  113  A    between atoms: _267  and  _268
REMARK  114  A    between atoms: _267  and  _270
REMARK  115  A    between atoms: _270  and  _271
REMARK  116  A    between atoms: _271  and  _272
REMARK  117  A    between atoms: _272  and  _273
REMARK  118  A    between atoms: _273  and  _274
REMARK  119  A    between atoms: _278  and  _280
REMARK  120  A    between atoms: _280  and  _281
REMARK  121  A    between atoms: _280  and  _283
REMARK  122  A    between atoms: _283  and  _284
REMARK  123  A    between atoms: _289  and  _291
REMARK  124  A    between atoms: _291  and  _292
REMARK  125  A    between atoms: _291  and  _294
REMARK  126  A    between atoms: _294  and  _295
REMARK  127  A    between atoms: _298  and  _300
REMARK  128  A    between atoms: _300  and  _301
REMARK  129  A    between atoms: _300  and  _303
REMARK  130  A    between atoms: _303  and  _304
REMARK  131  A    between atoms: _304  and  _305
REMARK  132  A    between atoms: _308  and  _310
REMARK  133  A    between atoms: _310  and  _311
REMARK  134  A    between atoms: _310  and  _313
REMARK  135  A    between atoms: _313  and  _314
REMARK  136  A    between atoms: _317  and  _319
REMARK  137  A    between atoms: _319  and  _320
REMARK  138  A    between atoms: _319  and  _322
REMARK  139  A    between atoms: _322  and  _323
REMARK  140  A    between atoms: _323  and  _324
REMARK  141  A    between atoms: _327  and  _329
REMARK  142  A    between atoms: _329  and  _330
REMARK  143  A    between atoms: _329  and  _332
REMARK  144  A    between atoms: _332  and  _333
REMARK  145  A    between atoms: _336  and  _338
REMARK  146  A    between atoms: _338  and  _339
REMARK  147  A    between atoms: _338  and  _341
REMARK  148  A    between atoms: _341  and  _342
REMARK  149  A    between atoms: _345  and  _347
REMARK  150  A    between atoms: _347  and  _348
REMARK  151  A    between atoms: _351  and  _353
REMARK  152  A    between atoms: _353  and  _354
REMARK  153  A    between atoms: _353  and  _356
REMARK  154  A    between atoms: _356  and  _357
REMARK  155  A    between atoms: _360  and  _362
REMARK  156  A    between atoms: _362  and  _363
REMARK  157  A    between atoms: _362  and  _365
REMARK  158  A    between atoms: _365  and  _366
REMARK  159  A    between atoms: _369  and  _371
REMARK  160  A    between atoms: _371  and  _372
REMARK  161  A    between atoms: _371  and  _374
REMARK  162  A    between atoms: _374  and  _375
REMARK  163  A    between atoms: _375  and  _376
REMARK  164  A    between atoms: _376  and  _377
REMARK  165  A    between atoms: _386  and  _388
REMARK  166  A    between atoms: _388  and  _389
REMARK  167  A    between atoms: _388  and  _391
REMARK  168  A    between atoms: _391  and  _392
REMARK  169  A    between atoms: _392  and  _393
REMARK  170  A    between atoms: _398  and  _400
REMARK  171  A    between atoms: _400  and  _401
REMARK  172  A    between atoms: _400  and  _403
REMARK  173  A    between atoms: _403  and  _404
REMARK  174  A    between atoms: _404  and  _405
REMARK  175  A    between atoms: _410  and  _412
REMARK  176  A    between atoms: _412  and  _413
REMARK  177  A    between atoms: _412  and  _415
REMARK  178  A    between atoms: _415  and  _416
REMARK  179  A    between atoms: _426  and  _428
REMARK  180  A    between atoms: _428  and  _429
REMARK  181  A    between atoms: _428  and  _431
REMARK  182  A    between atoms: _431  and  _432
REMARK  183  A    between atoms: _435  and  _437
REMARK  184  A    between atoms: _437  and  _438
REMARK  185  A    between atoms: _437  and  _440
REMARK  186  A    between atoms: _440  and  _441
REMARK  187  A    between atoms: _444  and  _446
REMARK  188  A    between atoms: _446  and  _447
REMARK  189  A    between atoms: _446  and  _449
REMARK  190  A    between atoms: _449  and  _450
REMARK  191  A    between atoms: _453  and  _455
REMARK  192  A    between atoms: _455  and  _456
REMARK  193  A    between atoms: _455  and  _458
REMARK  194  A    between atoms: _458  and  _459
REMARK  195  A    between atoms: _459  and  _460
REMARK  196  A    between atoms: _460  and  _461
REMARK  197  A    between atoms: _461  and  _462
REMARK  198  A    between atoms: _466  and  _468
REMARK  199  A    between atoms: _468  and  _469
REMARK  200  A    between atoms: _468  and  _471
REMARK  201  A    between atoms: _471  and  _472
REMARK  202  A    between atoms: _472  and  _473
REMARK  203  A    between atoms: _473  and  _474
REMARK  204  A    between atoms: _483  and  _485
REMARK  205  A    between atoms: _485  and  _486
REMARK  206  A    between atoms: _485  and  _488
REMARK  207  A    between atoms: _491  and  _493
REMARK  208  A    between atoms: _493  and  _494
REMARK  209  A    between atoms: _493  and  _496
REMARK  210  A    between atoms: _496  and  _497
REMARK  211  A    between atoms: _497  and  _498
REMARK  212  A    between atoms: _501  and  _503
REMARK  213  A    between atoms: _503  and  _504
REMARK  214  A    between atoms: _503  and  _506
REMARK  215  A    between atoms: _508  and  _510
REMARK  216  A    between atoms: _510  and  _511
REMARK  217  A    between atoms: _510  and  _513
REMARK  218  A    between atoms: _516  and  _518
REMARK  219  A    between atoms: _518  and  _519
REMARK  220  A    between atoms: _518  and  _521
REMARK  221  A    between atoms: _521  and  _522
REMARK  222  A    between atoms: _524  and  _526
REMARK  223  A    between atoms: _526  and  _527
REMARK  224  A    between atoms: _526  and  _529
REMARK  225  A    between atoms: _529  and  _530
REMARK  226  A    between atoms: _533  and  _535
REMARK  227  A    between atoms: _535  and  _536
REMARK  228  A    between atoms: _535  and  _538
REMARK  229  A    between atoms: _538  and  _539
REMARK  230  A    between atoms: _539  and  _540
REMARK  231  A    between atoms: _540  and  _541
REMARK  232  A    between atoms: _550  and  _552
REMARK  233  A    between atoms: _552  and  _553
REMARK  234  A    between atoms: _552  and  _555
REMARK  235  A    between atoms: _555  and  _556
REMARK  236  A    between atoms: _561  and  _562
REMARK  237  A    between atoms: _564  and  _566
REMARK  238  A    between atoms: _566  and  _567
REMARK  239  A    between atoms: _566  and  _569
REMARK  240  A    between atoms: _569  and  _570
REMARK  241  A    between atoms: _570  and  _571
REMARK                            x       y       z     vdW  Elec       q    Type
REMARK                         _______ _______ _______ _____ _____    ______ ____
ROOT
ATOM      1  O   HOH     1     -16.657 -13.516  18.071  0.00  0.00    +0.000 OA
ENDROOT
TORSDOF 0
