REMARK  Name = ../refined-set-2016/4g8y/4g8y_pocket.pdb
REMARK  135 active torsions:
REMARK  status: ('A' for Active; 'I' for Inactive)
REMARK    1  A    between atoms: _1  and  _3
REMARK    2  A    between atoms: _3  and  _4
REMARK    3  A    between atoms: _7  and  _9
REMARK    4  A    between atoms: _9  and  _10
REMARK    5  A    between atoms: _9  and  _12
REMARK    6  A    between atoms: _12  and  _13
REMARK    7  A    between atoms: _13  and  _14
REMARK    8  A    between atoms: _14  and  _15
REMARK    9  A    between atoms: _15  and  _16
REMARK   10  A    between atoms: _20  and  _22
REMARK   11  A    between atoms: _22  and  _23
REMARK   12  A    between atoms: _22  and  _25
REMARK   13  A    between atoms: _25  and  _26
REMARK   14  A    between atoms: _32  and  _34
REMARK   15  A    between atoms: _34  and  _35
REMARK   16  A    between atoms: _34  and  _37
REMARK   17  A    between atoms: _37  and  _38
REMARK   18  A    between atoms: _38  and  _39
REMARK   19  A    between atoms: _39  and  _40
REMARK   20  A    between atoms: _49  and  _51
REMARK   21  A    between atoms: _51  and  _52
REMARK   22  A    between atoms: _51  and  _54
REMARK   23  A    between atoms: _54  and  _55
REMARK   24  A    between atoms: _55  and  _56
REMARK   25  A    between atoms: _61  and  _63
REMARK   26  A    between atoms: _63  and  _64
REMARK   27  A    between atoms: _63  and  _66
REMARK   28  A    between atoms: _66  and  _67
REMARK   29  A    between atoms: _72  and  _74
REMARK   30  A    between atoms: _74  and  _75
REMARK   31  A    between atoms: _74  and  _77
REMARK   32  A    between atoms: _77  and  _78
REMARK   33  A    between atoms: _78  and  _79
REMARK   34  A    between atoms: _81  and  _83
REMARK   35  A    between atoms: _83  and  _84
REMARK   36  A    between atoms: _83  and  _86
REMARK   37  A    between atoms: _86  and  _87
REMARK   38  A    between atoms: _90  and  _92
REMARK   39  A    between atoms: _92  and  _93
REMARK   40  A    between atoms: _92  and  _95
REMARK   41  A    between atoms: _95  and  _96
REMARK   42  A    between atoms: _96  and  _97
REMARK   43  A    between atoms: _97  and  _98
REMARK   44  A    between atoms: _107  and  _109
REMARK   45  A    between atoms: _109  and  _110
REMARK   46  A    between atoms: _109  and  _112
REMARK   47  A    between atoms: _112  and  _113
REMARK   48  A    between atoms: _113  and  _114
REMARK   49  A    between atoms: _114  and  _115
REMARK   50  A    between atoms: _115  and  _116
REMARK   51  A    between atoms: _121  and  _122
REMARK   52  A    between atoms: _127  and  _129
REMARK   53  A    between atoms: _129  and  _130
REMARK   54  A    between atoms: _129  and  _132
REMARK   55  A    between atoms: _135  and  _137
REMARK   56  A    between atoms: _137  and  _138
REMARK   57  A    between atoms: _137  and  _140
REMARK   58  A    between atoms: _140  and  _141
REMARK   59  A    between atoms: _146  and  _148
REMARK   60  A    between atoms: _148  and  _149
REMARK   61  A    between atoms: _148  and  _151
REMARK   62  A    between atoms: _151  and  _152
REMARK   63  A    between atoms: _155  and  _157
REMARK   64  A    between atoms: _157  and  _158
REMARK   65  A    between atoms: _157  and  _160
REMARK   66  A    between atoms: _160  and  _161
REMARK   67  A    between atoms: _167  and  _169
REMARK   68  A    between atoms: _169  and  _170
REMARK   69  A    between atoms: _169  and  _172
REMARK   70  A    between atoms: _172  and  _173
REMARK   71  A    between atoms: _173  and  _174
REMARK   72  A    between atoms: _174  and  _175
REMARK   73  A    between atoms: _175  and  _176
REMARK   74  A    between atoms: _180  and  _182
REMARK   75  A    between atoms: _182  and  _183
REMARK   76  A    between atoms: _182  and  _185
REMARK   77  A    between atoms: _185  and  _186
REMARK   78  A    between atoms: _191  and  _193
REMARK   79  A    between atoms: _193  and  _194
REMARK   80  A    between atoms: _193  and  _196
REMARK   81  A    between atoms: _196  and  _197
REMARK   82  A    between atoms: _200  and  _202
REMARK   83  A    between atoms: _202  and  _203
REMARK   84  A    between atoms: _202  and  _205
REMARK   85  A    between atoms: _205  and  _206
REMARK   86  A    between atoms: _209  and  _211
REMARK   87  A    between atoms: _211  and  _212
REMARK   88  A    between atoms: _211  and  _214
REMARK   89  A    between atoms: _214  and  _215
REMARK   90  A    between atoms: _218  and  _220
REMARK   91  A    between atoms: _220  and  _221
REMARK   92  A    between atoms: _220  and  _223
REMARK   93  A    between atoms: _225  and  _227
REMARK   94  A    between atoms: _227  and  _228
REMARK   95  A    between atoms: _227  and  _230
REMARK   96  A    between atoms: _230  and  _231
REMARK   97  A    between atoms: _231  and  _232
REMARK   98  A    between atoms: _232  and  _233
REMARK   99  A    between atoms: _242  and  _244
REMARK  100  A    between atoms: _244  and  _245
REMARK  101  A    between atoms: _244  and  _247
REMARK  102  A    between atoms: _247  and  _248
REMARK  103  A    between atoms: _248  and  _249
REMARK  104  A    between atoms: _249  and  _250
REMARK  105  A    between atoms: _250  and  _251
REMARK  106  A    between atoms: _255  and  _257
REMARK  107  A    between atoms: _257  and  _258
REMARK  108  A    between atoms: _257  and  _260
REMARK  109  A    between atoms: _260  and  _261
REMARK  110  A    between atoms: _264  and  _266
REMARK  111  A    between atoms: _266  and  _267
REMARK  112  A    between atoms: _270  and  _272
REMARK  113  A    between atoms: _272  and  _273
REMARK  114  A    between atoms: _272  and  _275
REMARK  115  A    between atoms: _278  and  _280
REMARK  116  A    between atoms: _280  and  _281
REMARK  117  A    between atoms: _280  and  _283
REMARK  118  A    between atoms: _283  and  _284
REMARK  119  A    between atoms: _289  and  _291
REMARK  120  A    between atoms: _291  and  _292
REMARK  121  A    between atoms: _291  and  _294
REMARK  122  A    between atoms: _294  and  _295
REMARK  123  A    between atoms: _301  and  _303
REMARK  124  A    between atoms: _303  and  _304
REMARK  125  A    between atoms: _303  and  _306
REMARK  126  A    between atoms: _306  and  _307
REMARK  127  A    between atoms: _310  and  _312
REMARK  128  A    between atoms: _312  and  _313
REMARK  129  A    between atoms: _316  and  _318
REMARK  130  A    between atoms: _318  and  _319
REMARK  131  A    between atoms: _318  and  _321
REMARK  132  A    between atoms: _321  and  _322
REMARK  133  A    between atoms: _324  and  _326
REMARK  134  A    between atoms: _326  and  _327
REMARK  135  A    between atoms: _326  and  _329
REMARK                            x       y       z     vdW  Elec       q    Type
REMARK                         _______ _______ _______ _____ _____    ______ ____
ROOT
ATOM      1  CA  ALA A   1      33.826 -11.981  21.164  0.00  0.00    +0.133 C 
ATOM      2  CB  ALA A   1      34.132 -11.678  19.706  0.00  0.00    +0.027 C 
ENDROOT
BRANCH   1   3
ATOM      3  N   ALA A   1      33.652 -13.419  21.349  0.00  0.00    -0.239 NA
ATOM      4  H   ALA A   1      33.684 -14.042  20.517  0.00  0.00    +0.142 HD
ENDBRANCH   1   3
BRANCH   1   5
ATOM      5  C   ALA A   1      32.574 -11.234  21.607  0.00  0.00    +0.224 C 
ATOM      6  O   ALA A   1      32.654 -10.146  22.197  0.00  0.00    -0.287 OA
ENDBRANCH   1   5
TORSDOF 2
REMARK  Name = ../refined-set-2016/4g8y/4g8y_pocket.pdb
REMARK  135 active torsions:
REMARK  status: ('A' for Active; 'I' for Inactive)
REMARK    1  A    between atoms: _1  and  _3
REMARK    2  A    between atoms: _3  and  _4
REMARK    3  A    between atoms: _7  and  _9
REMARK    4  A    between atoms: _9  and  _10
REMARK    5  A    between atoms: _9  and  _12
REMARK    6  A    between atoms: _12  and  _13
REMARK    7  A    between atoms: _13  and  _14
REMARK    8  A    between atoms: _14  and  _15
REMARK    9  A    between atoms: _15  and  _16
REMARK   10  A    between atoms: _20  and  _22
REMARK   11  A    between atoms: _22  and  _23
REMARK   12  A    between atoms: _22  and  _25
REMARK   13  A    between atoms: _25  and  _26
REMARK   14  A    between atoms: _32  and  _34
REMARK   15  A    between atoms: _34  and  _35
REMARK   16  A    between atoms: _34  and  _37
REMARK   17  A    between atoms: _37  and  _38
REMARK   18  A    between atoms: _38  and  _39
REMARK   19  A    between atoms: _39  and  _40
REMARK   20  A    between atoms: _49  and  _51
REMARK   21  A    between atoms: _51  and  _52
REMARK   22  A    between atoms: _51  and  _54
REMARK   23  A    between atoms: _54  and  _55
REMARK   24  A    between atoms: _55  and  _56
REMARK   25  A    between atoms: _61  and  _63
REMARK   26  A    between atoms: _63  and  _64
REMARK   27  A    between atoms: _63  and  _66
REMARK   28  A    between atoms: _66  and  _67
REMARK   29  A    between atoms: _72  and  _74
REMARK   30  A    between atoms: _74  and  _75
REMARK   31  A    between atoms: _74  and  _77
REMARK   32  A    between atoms: _77  and  _78
REMARK   33  A    between atoms: _78  and  _79
REMARK   34  A    between atoms: _81  and  _83
REMARK   35  A    between atoms: _83  and  _84
REMARK   36  A    between atoms: _83  and  _86
REMARK   37  A    between atoms: _86  and  _87
REMARK   38  A    between atoms: _90  and  _92
REMARK   39  A    between atoms: _92  and  _93
REMARK   40  A    between atoms: _92  and  _95
REMARK   41  A    between atoms: _95  and  _96
REMARK   42  A    between atoms: _96  and  _97
REMARK   43  A    between atoms: _97  and  _98
REMARK   44  A    between atoms: _107  and  _109
REMARK   45  A    between atoms: _109  and  _110
REMARK   46  A    between atoms: _109  and  _112
REMARK   47  A    between atoms: _112  and  _113
REMARK   48  A    between atoms: _113  and  _114
REMARK   49  A    between atoms: _114  and  _115
REMARK   50  A    between atoms: _115  and  _116
REMARK   51  A    between atoms: _121  and  _122
REMARK   52  A    between atoms: _127  and  _129
REMARK   53  A    between atoms: _129  and  _130
REMARK   54  A    between atoms: _129  and  _132
REMARK   55  A    between atoms: _135  and  _137
REMARK   56  A    between atoms: _137  and  _138
REMARK   57  A    between atoms: _137  and  _140
REMARK   58  A    between atoms: _140  and  _141
REMARK   59  A    between atoms: _146  and  _148
REMARK   60  A    between atoms: _148  and  _149
REMARK   61  A    between atoms: _148  and  _151
REMARK   62  A    between atoms: _151  and  _152
REMARK   63  A    between atoms: _155  and  _157
REMARK   64  A    between atoms: _157  and  _158
REMARK   65  A    between atoms: _157  and  _160
REMARK   66  A    between atoms: _160  and  _161
REMARK   67  A    between atoms: _167  and  _169
REMARK   68  A    between atoms: _169  and  _170
REMARK   69  A    between atoms: _169  and  _172
REMARK   70  A    between atoms: _172  and  _173
REMARK   71  A    between atoms: _173  and  _174
REMARK   72  A    between atoms: _174  and  _175
REMARK   73  A    between atoms: _175  and  _176
REMARK   74  A    between atoms: _180  and  _182
REMARK   75  A    between atoms: _182  and  _183
REMARK   76  A    between atoms: _182  and  _185
REMARK   77  A    between atoms: _185  and  _186
REMARK   78  A    between atoms: _191  and  _193
REMARK   79  A    between atoms: _193  and  _194
REMARK   80  A    between atoms: _193  and  _196
REMARK   81  A    between atoms: _196  and  _197
REMARK   82  A    between atoms: _200  and  _202
REMARK   83  A    between atoms: _202  and  _203
REMARK   84  A    between atoms: _202  and  _205
REMARK   85  A    between atoms: _205  and  _206
REMARK   86  A    between atoms: _209  and  _211
REMARK   87  A    between atoms: _211  and  _212
REMARK   88  A    between atoms: _211  and  _214
REMARK   89  A    between atoms: _214  and  _215
REMARK   90  A    between atoms: _218  and  _220
REMARK   91  A    between atoms: _220  and  _221
REMARK   92  A    between atoms: _220  and  _223
REMARK   93  A    between atoms: _225  and  _227
REMARK   94  A    between atoms: _227  and  _228
REMARK   95  A    between atoms: _227  and  _230
REMARK   96  A    between atoms: _230  and  _231
REMARK   97  A    between atoms: _231  and  _232
REMARK   98  A    between atoms: _232  and  _233
REMARK   99  A    between atoms: _242  and  _244
REMARK  100  A    between atoms: _244  and  _245
REMARK  101  A    between atoms: _244  and  _247
REMARK  102  A    between atoms: _247  and  _248
REMARK  103  A    between atoms: _248  and  _249
REMARK  104  A    between atoms: _249  and  _250
REMARK  105  A    between atoms: _250  and  _251
REMARK  106  A    between atoms: _255  and  _257
REMARK  107  A    between atoms: _257  and  _258
REMARK  108  A    between atoms: _257  and  _260
REMARK  109  A    between atoms: _260  and  _261
REMARK  110  A    between atoms: _264  and  _266
REMARK  111  A    between atoms: _266  and  _267
REMARK  112  A    between atoms: _270  and  _272
REMARK  113  A    between atoms: _272  and  _273
REMARK  114  A    between atoms: _272  and  _275
REMARK  115  A    between atoms: _278  and  _280
REMARK  116  A    between atoms: _280  and  _281
REMARK  117  A    between atoms: _280  and  _283
REMARK  118  A    between atoms: _283  and  _284
REMARK  119  A    between atoms: _289  and  _291
REMARK  120  A    between atoms: _291  and  _292
REMARK  121  A    between atoms: _291  and  _294
REMARK  122  A    between atoms: _294  and  _295
REMARK  123  A    between atoms: _301  and  _303
REMARK  124  A    between atoms: _303  and  _304
REMARK  125  A    between atoms: _303  and  _306
REMARK  126  A    between atoms: _306  and  _307
REMARK  127  A    between atoms: _310  and  _312
REMARK  128  A    between atoms: _312  and  _313
REMARK  129  A    between atoms: _316  and  _318
REMARK  130  A    between atoms: _318  and  _319
REMARK  131  A    between atoms: _318  and  _321
REMARK  132  A    between atoms: _321  and  _322
REMARK  133  A    between atoms: _324  and  _326
REMARK  134  A    between atoms: _326  and  _327
REMARK  135  A    between atoms: _326  and  _329
REMARK                            x       y       z     vdW  Elec       q    Type
REMARK                         _______ _______ _______ _____ _____    ______ ____
ROOT
ATOM      1  C   LYS A   1      32.985  -8.805  25.746  0.00  0.00    +0.238 C 
ATOM      2  O   LYS A   1      33.186  -8.007  26.651  0.00  0.00    -0.274 OA
ATOM      3  N   PHE A   2      32.303  -8.483  24.648  0.00  0.00    -0.298 N 
ATOM      4  H   PHE A   2      32.223  -9.167  23.869  0.00  0.00    +0.150 HD
ENDROOT
BRANCH   1   5
ATOM      5  CA  LYS A   1      33.507 -10.233  25.847  0.00  0.00    +0.145 C 
BRANCH   5   6
ATOM      6  N   LYS A   1      32.511 -11.162  25.333  0.00  0.00    -0.238 NA
ATOM      7  H   LYS A   1      32.718 -11.710  24.474  0.00  0.00    +0.142 HD
ENDBRANCH   5   6
BRANCH   5   8
ATOM      8  CB  LYS A   1      34.813 -10.372  25.077  0.00  0.00    +0.026 C 
BRANCH   8   9
ATOM      9  CG  LYS A   1      35.924  -9.472  25.572  0.00  0.00    -0.000 C 
BRANCH   9  10
ATOM     10  CD  LYS A   1      37.205  -9.838  24.871  0.00  0.00    -0.024 C 
BRANCH  10  11
ATOM     11  CE  LYS A   1      38.298  -8.834  25.142  0.00  0.00    -0.086 C 
BRANCH  11  12
ATOM     12  NZ  LYS A   1      39.531  -9.236  24.431  0.00  0.00    +0.380 N 
ATOM     13  HZ1 LYS A   1      39.832 -10.174  24.765  0.00  0.00    -0.089 HD
ATOM     14  HZ2 LYS A   1      40.281  -8.541  24.621  0.00  0.00    -0.089 HD
ATOM     15  HZ3 LYS A   1      39.343  -9.275  23.409  0.00  0.00    -0.089 HD
ENDBRANCH  11  12
ENDBRANCH  10  11
ENDBRANCH   9  10
ENDBRANCH   8   9
ENDBRANCH   5   8
ENDBRANCH   1   5
BRANCH   3  16
ATOM     16  CA  PHE A   2      31.664  -7.167  24.534  0.00  0.00    +0.141 C 
BRANCH  16  17
ATOM     17  C   PHE A   2      30.653  -6.941  25.663  0.00  0.00    +0.227 C 
ATOM     18  O   PHE A   2      30.592  -5.862  26.230  0.00  0.00    -0.286 OA
ENDBRANCH  16  17
BRANCH  16  19
ATOM     19  CB  PHE A   2      30.981  -6.990  23.167  0.00  0.00    +0.054 C 
BRANCH  19  20
ATOM     20  CG  PHE A   2      30.183  -5.714  23.045  0.00  0.00    -0.020 A 
ATOM     21  CD2 PHE A   2      28.860  -5.657  23.470  0.00  0.00    -0.004 A 
ATOM     22  CE2 PHE A   2      28.133  -4.481  23.383  0.00  0.00    -0.000 A 
ATOM     23  CZ  PHE A   2      28.716  -3.345  22.838  0.00  0.00    -0.000 A 
ATOM     24  CE1 PHE A   2      30.027  -3.389  22.392  0.00  0.00    -0.000 A 
ATOM     25  CD1 PHE A   2      30.755  -4.573  22.496  0.00  0.00    -0.004 A 
ENDBRANCH  19  20
ENDBRANCH  16  19
ENDBRANCH   3  16
TORSDOF 11
REMARK  Name = ../refined-set-2016/4g8y/4g8y_pocket.pdb
REMARK  135 active torsions:
REMARK  status: ('A' for Active; 'I' for Inactive)
REMARK    1  A    between atoms: _1  and  _3
REMARK    2  A    between atoms: _3  and  _4
REMARK    3  A    between atoms: _7  and  _9
REMARK    4  A    between atoms: _9  and  _10
REMARK    5  A    between atoms: _9  and  _12
REMARK    6  A    between atoms: _12  and  _13
REMARK    7  A    between atoms: _13  and  _14
REMARK    8  A    between atoms: _14  and  _15
REMARK    9  A    between atoms: _15  and  _16
REMARK   10  A    between atoms: _20  and  _22
REMARK   11  A    between atoms: _22  and  _23
REMARK   12  A    between atoms: _22  and  _25
REMARK   13  A    between atoms: _25  and  _26
REMARK   14  A    between atoms: _32  and  _34
REMARK   15  A    between atoms: _34  and  _35
REMARK   16  A    between atoms: _34  and  _37
REMARK   17  A    between atoms: _37  and  _38
REMARK   18  A    between atoms: _38  and  _39
REMARK   19  A    between atoms: _39  and  _40
REMARK   20  A    between atoms: _49  and  _51
REMARK   21  A    between atoms: _51  and  _52
REMARK   22  A    between atoms: _51  and  _54
REMARK   23  A    between atoms: _54  and  _55
REMARK   24  A    between atoms: _55  and  _56
REMARK   25  A    between atoms: _61  and  _63
REMARK   26  A    between atoms: _63  and  _64
REMARK   27  A    between atoms: _63  and  _66
REMARK   28  A    between atoms: _66  and  _67
REMARK   29  A    between atoms: _72  and  _74
REMARK   30  A    between atoms: _74  and  _75
REMARK   31  A    between atoms: _74  and  _77
REMARK   32  A    between atoms: _77  and  _78
REMARK   33  A    between atoms: _78  and  _79
REMARK   34  A    between atoms: _81  and  _83
REMARK   35  A    between atoms: _83  and  _84
REMARK   36  A    between atoms: _83  and  _86
REMARK   37  A    between atoms: _86  and  _87
REMARK   38  A    between atoms: _90  and  _92
REMARK   39  A    between atoms: _92  and  _93
REMARK   40  A    between atoms: _92  and  _95
REMARK   41  A    between atoms: _95  and  _96
REMARK   42  A    between atoms: _96  and  _97
REMARK   43  A    between atoms: _97  and  _98
REMARK   44  A    between atoms: _107  and  _109
REMARK   45  A    between atoms: _109  and  _110
REMARK   46  A    between atoms: _109  and  _112
REMARK   47  A    between atoms: _112  and  _113
REMARK   48  A    between atoms: _113  and  _114
REMARK   49  A    between atoms: _114  and  _115
REMARK   50  A    between atoms: _115  and  _116
REMARK   51  A    between atoms: _121  and  _122
REMARK   52  A    between atoms: _127  and  _129
REMARK   53  A    between atoms: _129  and  _130
REMARK   54  A    between atoms: _129  and  _132
REMARK   55  A    between atoms: _135  and  _137
REMARK   56  A    between atoms: _137  and  _138
REMARK   57  A    between atoms: _137  and  _140
REMARK   58  A    between atoms: _140  and  _141
REMARK   59  A    between atoms: _146  and  _148
REMARK   60  A    between atoms: _148  and  _149
REMARK   61  A    between atoms: _148  and  _151
REMARK   62  A    between atoms: _151  and  _152
REMARK   63  A    between atoms: _155  and  _157
REMARK   64  A    between atoms: _157  and  _158
REMARK   65  A    between atoms: _157  and  _160
REMARK   66  A    between atoms: _160  and  _161
REMARK   67  A    between atoms: _167  and  _169
REMARK   68  A    between atoms: _169  and  _170
REMARK   69  A    between atoms: _169  and  _172
REMARK   70  A    between atoms: _172  and  _173
REMARK   71  A    between atoms: _173  and  _174
REMARK   72  A    between atoms: _174  and  _175
REMARK   73  A    between atoms: _175  and  _176
REMARK   74  A    between atoms: _180  and  _182
REMARK   75  A    between atoms: _182  and  _183
REMARK   76  A    between atoms: _182  and  _185
REMARK   77  A    between atoms: _185  and  _186
REMARK   78  A    between atoms: _191  and  _193
REMARK   79  A    between atoms: _193  and  _194
REMARK   80  A    between atoms: _193  and  _196
REMARK   81  A    between atoms: _196  and  _197
REMARK   82  A    between atoms: _200  and  _202
REMARK   83  A    between atoms: _202  and  _203
REMARK   84  A    between atoms: _202  and  _205
REMARK   85  A    between atoms: _205  and  _206
REMARK   86  A    between atoms: _209  and  _211
REMARK   87  A    between atoms: _211  and  _212
REMARK   88  A    between atoms: _211  and  _214
REMARK   89  A    between atoms: _214  and  _215
REMARK   90  A    between atoms: _218  and  _220
REMARK   91  A    between atoms: _220  and  _221
REMARK   92  A    between atoms: _220  and  _223
REMARK   93  A    between atoms: _225  and  _227
REMARK   94  A    between atoms: _227  and  _228
REMARK   95  A    between atoms: _227  and  _230
REMARK   96  A    between atoms: _230  and  _231
REMARK   97  A    between atoms: _231  and  _232
REMARK   98  A    between atoms: _232  and  _233
REMARK   99  A    between atoms: _242  and  _244
REMARK  100  A    between atoms: _244  and  _245
REMARK  101  A    between atoms: _244  and  _247
REMARK  102  A    between atoms: _247  and  _248
REMARK  103  A    between atoms: _248  and  _249
REMARK  104  A    between atoms: _249  and  _250
REMARK  105  A    between atoms: _250  and  _251
REMARK  106  A    between atoms: _255  and  _257
REMARK  107  A    between atoms: _257  and  _258
REMARK  108  A    between atoms: _257  and  _260
REMARK  109  A    between atoms: _260  and  _261
REMARK  110  A    between atoms: _264  and  _266
REMARK  111  A    between atoms: _266  and  _267
REMARK  112  A    between atoms: _270  and  _272
REMARK  113  A    between atoms: _272  and  _273
REMARK  114  A    between atoms: _272  and  _275
REMARK  115  A    between atoms: _278  and  _280
REMARK  116  A    between atoms: _280  and  _281
REMARK  117  A    between atoms: _280  and  _283
REMARK  118  A    between atoms: _283  and  _284
REMARK  119  A    between atoms: _289  and  _291
REMARK  120  A    between atoms: _291  and  _292
REMARK  121  A    between atoms: _291  and  _294
REMARK  122  A    between atoms: _294  and  _295
REMARK  123  A    between atoms: _301  and  _303
REMARK  124  A    between atoms: _303  and  _304
REMARK  125  A    between atoms: _303  and  _306
REMARK  126  A    between atoms: _306  and  _307
REMARK  127  A    between atoms: _310  and  _312
REMARK  128  A    between atoms: _312  and  _313
REMARK  129  A    between atoms: _316  and  _318
REMARK  130  A    between atoms: _318  and  _319
REMARK  131  A    between atoms: _318  and  _321
REMARK  132  A    between atoms: _321  and  _322
REMARK  133  A    between atoms: _324  and  _326
REMARK  134  A    between atoms: _326  and  _327
REMARK  135  A    between atoms: _326  and  _329
REMARK                            x       y       z     vdW  Elec       q    Type
REMARK                         _______ _______ _______ _____ _____    ______ ____
ROOT
ATOM      1  CA  GLN A   2      33.384  -5.041  28.890  0.00  0.00    +0.149 C 
ENDROOT
BRANCH   1   4
ATOM      2  C   ARG A   1      32.081  -6.759  29.991  0.00  0.00    +0.238 C 
ATOM      3  O   ARG A   1      32.102  -6.132  31.046  0.00  0.00    -0.274 OA
ATOM      4  N   GLN A   2      32.658  -6.306  28.885  0.00  0.00    -0.297 N 
ATOM      5  H   GLN A   2      32.592  -6.858  28.006  0.00  0.00    +0.150 HD
BRANCH   2   6
ATOM      6  CA  ARG A   1      31.377  -8.119  29.892  0.00  0.00    +0.145 C 
BRANCH   6   7
ATOM      7  N   ARG A   1      30.622  -8.275  28.633  0.00  0.00    -0.238 NA
ATOM      8  H   ARG A   1      30.942  -8.972  27.931  0.00  0.00    +0.142 HD
ENDBRANCH   6   7
BRANCH   6   9
ATOM      9  CB  ARG A   1      32.431  -9.226  30.031  0.00  0.00    +0.030 C 
BRANCH   9  10
ATOM     10  CG  ARG A   1      33.409  -8.989  31.188  0.00  0.00    +0.045 C 
BRANCH  10  11
ATOM     11  CD  ARG A   1      34.370 -10.156  31.399  0.00  0.00    +0.174 C 
BRANCH  11  12
ATOM     12  NE  ARG A   1      35.205 -10.453  30.231  0.00  0.00    -0.265 N 
ATOM     13  CZ  ARG A   1      36.366  -9.864  29.956  0.00  0.00    +0.342 C 
ATOM     14  NH2 ARG A   1      36.855  -8.924  30.758  0.00  0.00    -0.292 N 
ATOM     15 HH21 ARG A   1      36.329  -8.642  31.610  0.00  0.00    +0.255 HD
ATOM     16 HH22 ARG A   1      37.763  -8.470  30.534  0.00  0.00    +0.255 HD
ATOM     17  NH1 ARG A   1      37.044 -10.219  28.872  0.00  0.00    -0.292 N 
ATOM     18 HH11 ARG A   1      37.952  -9.761  28.653  0.00  0.00    +0.255 HD
ATOM     19 HH12 ARG A   1      36.668 -10.955  28.241  0.00  0.00    +0.255 HD
ATOM     20  HE  ARG A   1      34.864 -11.178  29.568  0.00  0.00    +0.259 HD
ENDBRANCH  11  12
ENDBRANCH  10  11
ENDBRANCH   9  10
ENDBRANCH   6   9
ENDBRANCH   2   6
ENDBRANCH   1   4
BRANCH   1  21
ATOM     21  C   GLN A   2      32.483  -3.818  28.816  0.00  0.00    +0.241 C 
ATOM     22  O   GLN A   2      32.847  -2.756  29.312  0.00  0.00    -0.273 OA
ATOM     23  N   HIS A   3      31.301  -3.959  28.209  0.00  0.00    -0.298 N 
ATOM     24  H   HIS A   3      30.917  -4.908  28.027  0.00  0.00    +0.150 HD
BRANCH  23  25
ATOM     25  CA  HIS A   3      30.550  -2.773  27.802  0.00  0.00    +0.143 C 
BRANCH  25  26
ATOM     26  C   HIS A   3      29.074  -2.707  28.143  0.00  0.00    +0.227 C 
ATOM     27  O   HIS A   3      28.470  -1.668  27.938  0.00  0.00    -0.286 OA
ENDBRANCH  25  26
BRANCH  25  28
ATOM     28  CB  HIS A   3      30.708  -2.554  26.296  0.00  0.00    +0.075 C 
BRANCH  28  29
ATOM     29  CG  HIS A   3      32.124  -2.335  25.870  0.00  0.00    +0.082 A 
ATOM     30  ND1 HIS A   3      32.859  -1.244  26.278  0.00  0.00    -0.227 NA
ATOM     31  CE1 HIS A   3      34.062  -1.308  25.742  0.00  0.00    +0.199 A 
ATOM     32  NE2 HIS A   3      34.140  -2.405  25.012  0.00  0.00    -0.221 NA
ATOM     33  CD2 HIS A   3      32.933  -3.063  25.073  0.00  0.00    +0.115 A 
ENDBRANCH  28  29
ENDBRANCH  25  28
ENDBRANCH  23  25
ENDBRANCH   1  21
BRANCH   1  34
ATOM     34  CB  GLN A   2      34.398  -5.010  27.744  0.00  0.00    +0.039 C 
BRANCH  34  35
ATOM     35  CG  GLN A   2      35.491  -6.053  27.890  0.00  0.00    +0.087 C 
BRANCH  35  36
ATOM     36  CD  GLN A   2      36.681  -5.790  26.988  0.00  0.00    +0.219 C 
ATOM     37  OE1 GLN A   2      37.827  -5.815  27.440  0.00  0.00    -0.275 OA
ATOM     38  NE2 GLN A   2      36.419  -5.549  25.707  0.00  0.00    -0.329 N 
ATOM     39 HE21 GLN A   2      35.435  -5.538  25.371  0.00  0.00    +0.145 HD
ATOM     40 HE22 GLN A   2      37.198  -5.372  25.041  0.00  0.00    +0.145 HD
ENDBRANCH  35  36
ENDBRANCH  34  35
ENDBRANCH   1  34
TORSDOF 15
REMARK  Name = ../refined-set-2016/4g8y/4g8y_pocket.pdb
REMARK  135 active torsions:
REMARK  status: ('A' for Active; 'I' for Inactive)
REMARK    1  A    between atoms: _1  and  _3
REMARK    2  A    between atoms: _3  and  _4
REMARK    3  A    between atoms: _7  and  _9
REMARK    4  A    between atoms: _9  and  _10
REMARK    5  A    between atoms: _9  and  _12
REMARK    6  A    between atoms: _12  and  _13
REMARK    7  A    between atoms: _13  and  _14
REMARK    8  A    between atoms: _14  and  _15
REMARK    9  A    between atoms: _15  and  _16
REMARK   10  A    between atoms: _20  and  _22
REMARK   11  A    between atoms: _22  and  _23
REMARK   12  A    between atoms: _22  and  _25
REMARK   13  A    between atoms: _25  and  _26
REMARK   14  A    between atoms: _32  and  _34
REMARK   15  A    between atoms: _34  and  _35
REMARK   16  A    between atoms: _34  and  _37
REMARK   17  A    between atoms: _37  and  _38
REMARK   18  A    between atoms: _38  and  _39
REMARK   19  A    between atoms: _39  and  _40
REMARK   20  A    between atoms: _49  and  _51
REMARK   21  A    between atoms: _51  and  _52
REMARK   22  A    between atoms: _51  and  _54
REMARK   23  A    between atoms: _54  and  _55
REMARK   24  A    between atoms: _55  and  _56
REMARK   25  A    between atoms: _61  and  _63
REMARK   26  A    between atoms: _63  and  _64
REMARK   27  A    between atoms: _63  and  _66
REMARK   28  A    between atoms: _66  and  _67
REMARK   29  A    between atoms: _72  and  _74
REMARK   30  A    between atoms: _74  and  _75
REMARK   31  A    between atoms: _74  and  _77
REMARK   32  A    between atoms: _77  and  _78
REMARK   33  A    between atoms: _78  and  _79
REMARK   34  A    between atoms: _81  and  _83
REMARK   35  A    between atoms: _83  and  _84
REMARK   36  A    between atoms: _83  and  _86
REMARK   37  A    between atoms: _86  and  _87
REMARK   38  A    between atoms: _90  and  _92
REMARK   39  A    between atoms: _92  and  _93
REMARK   40  A    between atoms: _92  and  _95
REMARK   41  A    between atoms: _95  and  _96
REMARK   42  A    between atoms: _96  and  _97
REMARK   43  A    between atoms: _97  and  _98
REMARK   44  A    between atoms: _107  and  _109
REMARK   45  A    between atoms: _109  and  _110
REMARK   46  A    between atoms: _109  and  _112
REMARK   47  A    between atoms: _112  and  _113
REMARK   48  A    between atoms: _113  and  _114
REMARK   49  A    between atoms: _114  and  _115
REMARK   50  A    between atoms: _115  and  _116
REMARK   51  A    between atoms: _121  and  _122
REMARK   52  A    between atoms: _127  and  _129
REMARK   53  A    between atoms: _129  and  _130
REMARK   54  A    between atoms: _129  and  _132
REMARK   55  A    between atoms: _135  and  _137
REMARK   56  A    between atoms: _137  and  _138
REMARK   57  A    between atoms: _137  and  _140
REMARK   58  A    between atoms: _140  and  _141
REMARK   59  A    between atoms: _146  and  _148
REMARK   60  A    between atoms: _148  and  _149
REMARK   61  A    between atoms: _148  and  _151
REMARK   62  A    between atoms: _151  and  _152
REMARK   63  A    between atoms: _155  and  _157
REMARK   64  A    between atoms: _157  and  _158
REMARK   65  A    between atoms: _157  and  _160
REMARK   66  A    between atoms: _160  and  _161
REMARK   67  A    between atoms: _167  and  _169
REMARK   68  A    between atoms: _169  and  _170
REMARK   69  A    between atoms: _169  and  _172
REMARK   70  A    between atoms: _172  and  _173
REMARK   71  A    between atoms: _173  and  _174
REMARK   72  A    between atoms: _174  and  _175
REMARK   73  A    between atoms: _175  and  _176
REMARK   74  A    between atoms: _180  and  _182
REMARK   75  A    between atoms: _182  and  _183
REMARK   76  A    between atoms: _182  and  _185
REMARK   77  A    between atoms: _185  and  _186
REMARK   78  A    between atoms: _191  and  _193
REMARK   79  A    between atoms: _193  and  _194
REMARK   80  A    between atoms: _193  and  _196
REMARK   81  A    between atoms: _196  and  _197
REMARK   82  A    between atoms: _200  and  _202
REMARK   83  A    between atoms: _202  and  _203
REMARK   84  A    between atoms: _202  and  _205
REMARK   85  A    between atoms: _205  and  _206
REMARK   86  A    between atoms: _209  and  _211
REMARK   87  A    between atoms: _211  and  _212
REMARK   88  A    between atoms: _211  and  _214
REMARK   89  A    between atoms: _214  and  _215
REMARK   90  A    between atoms: _218  and  _220
REMARK   91  A    between atoms: _220  and  _221
REMARK   92  A    between atoms: _220  and  _223
REMARK   93  A    between atoms: _225  and  _227
REMARK   94  A    between atoms: _227  and  _228
REMARK   95  A    between atoms: _227  and  _230
REMARK   96  A    between atoms: _230  and  _231
REMARK   97  A    between atoms: _231  and  _232
REMARK   98  A    between atoms: _232  and  _233
REMARK   99  A    between atoms: _242  and  _244
REMARK  100  A    between atoms: _244  and  _245
REMARK  101  A    between atoms: _244  and  _247
REMARK  102  A    between atoms: _247  and  _248
REMARK  103  A    between atoms: _248  and  _249
REMARK  104  A    between atoms: _249  and  _250
REMARK  105  A    between atoms: _250  and  _251
REMARK  106  A    between atoms: _255  and  _257
REMARK  107  A    between atoms: _257  and  _258
REMARK  108  A    between atoms: _257  and  _260
REMARK  109  A    between atoms: _260  and  _261
REMARK  110  A    between atoms: _264  and  _266
REMARK  111  A    between atoms: _266  and  _267
REMARK  112  A    between atoms: _270  and  _272
REMARK  113  A    between atoms: _272  and  _273
REMARK  114  A    between atoms: _272  and  _275
REMARK  115  A    between atoms: _278  and  _280
REMARK  116  A    between atoms: _280  and  _281
REMARK  117  A    between atoms: _280  and  _283
REMARK  118  A    between atoms: _283  and  _284
REMARK  119  A    between atoms: _289  and  _291
REMARK  120  A    between atoms: _291  and  _292
REMARK  121  A    between atoms: _291  and  _294
REMARK  122  A    between atoms: _294  and  _295
REMARK  123  A    between atoms: _301  and  _303
REMARK  124  A    between atoms: _303  and  _304
REMARK  125  A    between atoms: _303  and  _306
REMARK  126  A    between atoms: _306  and  _307
REMARK  127  A    between atoms: _310  and  _312
REMARK  128  A    between atoms: _312  and  _313
REMARK  129  A    between atoms: _316  and  _318
REMARK  130  A    between atoms: _318  and  _319
REMARK  131  A    between atoms: _318  and  _321
REMARK  132  A    between atoms: _321  and  _322
REMARK  133  A    between atoms: _324  and  _326
REMARK  134  A    between atoms: _326  and  _327
REMARK  135  A    between atoms: _326  and  _329
REMARK                            x       y       z     vdW  Elec       q    Type
REMARK                         _______ _______ _______ _____ _____    ______ ____
ROOT
ATOM      1  CA  MET A   1      36.562  -1.766  35.873  0.00  0.00    +0.134 C 
ENDROOT
BRANCH   1   2
ATOM      2  N   MET A   1      35.363  -1.362  36.600  0.00  0.00    -0.239 NA
ATOM      3  H   MET A   1      35.286  -0.394  36.973  0.00  0.00    +0.142 HD
ENDBRANCH   1   2
BRANCH   1   4
ATOM      4  C   MET A   1      37.241  -2.954  36.559  0.00  0.00    +0.224 C 
ATOM      5  O   MET A   1      37.809  -3.818  35.900  0.00  0.00    -0.287 OA
ENDBRANCH   1   4
BRANCH   1   6
ATOM      6  CB  MET A   1      37.548  -0.600  35.728  0.00  0.00    +0.037 C 
BRANCH   6   7
ATOM      7  CG  MET A   1      37.006   0.575  34.932  0.00  0.00    +0.059 C 
BRANCH   7   8
ATOM      8  SD  MET A   1      36.708   0.142  33.205  0.00  0.00    -0.139 S 
ATOM      9  CE  MET A   1      38.382  -0.094  32.617  0.00  0.00    +0.069 C 
ENDBRANCH   7   8
ENDBRANCH   6   7
ENDBRANCH   1   6
TORSDOF 5
REMARK  Name = ../refined-set-2016/4g8y/4g8y_pocket.pdb
REMARK  135 active torsions:
REMARK  status: ('A' for Active; 'I' for Inactive)
REMARK    1  A    between atoms: _1  and  _3
REMARK    2  A    between atoms: _3  and  _4
REMARK    3  A    between atoms: _7  and  _9
REMARK    4  A    between atoms: _9  and  _10
REMARK    5  A    between atoms: _9  and  _12
REMARK    6  A    between atoms: _12  and  _13
REMARK    7  A    between atoms: _13  and  _14
REMARK    8  A    between atoms: _14  and  _15
REMARK    9  A    between atoms: _15  and  _16
REMARK   10  A    between atoms: _20  and  _22
REMARK   11  A    between atoms: _22  and  _23
REMARK   12  A    between atoms: _22  and  _25
REMARK   13  A    between atoms: _25  and  _26
REMARK   14  A    between atoms: _32  and  _34
REMARK   15  A    between atoms: _34  and  _35
REMARK   16  A    between atoms: _34  and  _37
REMARK   17  A    between atoms: _37  and  _38
REMARK   18  A    between atoms: _38  and  _39
REMARK   19  A    between atoms: _39  and  _40
REMARK   20  A    between atoms: _49  and  _51
REMARK   21  A    between atoms: _51  and  _52
REMARK   22  A    between atoms: _51  and  _54
REMARK   23  A    between atoms: _54  and  _55
REMARK   24  A    between atoms: _55  and  _56
REMARK   25  A    between atoms: _61  and  _63
REMARK   26  A    between atoms: _63  and  _64
REMARK   27  A    between atoms: _63  and  _66
REMARK   28  A    between atoms: _66  and  _67
REMARK   29  A    between atoms: _72  and  _74
REMARK   30  A    between atoms: _74  and  _75
REMARK   31  A    between atoms: _74  and  _77
REMARK   32  A    between atoms: _77  and  _78
REMARK   33  A    between atoms: _78  and  _79
REMARK   34  A    between atoms: _81  and  _83
REMARK   35  A    between atoms: _83  and  _84
REMARK   36  A    between atoms: _83  and  _86
REMARK   37  A    between atoms: _86  and  _87
REMARK   38  A    between atoms: _90  and  _92
REMARK   39  A    between atoms: _92  and  _93
REMARK   40  A    between atoms: _92  and  _95
REMARK   41  A    between atoms: _95  and  _96
REMARK   42  A    between atoms: _96  and  _97
REMARK   43  A    between atoms: _97  and  _98
REMARK   44  A    between atoms: _107  and  _109
REMARK   45  A    between atoms: _109  and  _110
REMARK   46  A    between atoms: _109  and  _112
REMARK   47  A    between atoms: _112  and  _113
REMARK   48  A    between atoms: _113  and  _114
REMARK   49  A    between atoms: _114  and  _115
REMARK   50  A    between atoms: _115  and  _116
REMARK   51  A    between atoms: _121  and  _122
REMARK   52  A    between atoms: _127  and  _129
REMARK   53  A    between atoms: _129  and  _130
REMARK   54  A    between atoms: _129  and  _132
REMARK   55  A    between atoms: _135  and  _137
REMARK   56  A    between atoms: _137  and  _138
REMARK   57  A    between atoms: _137  and  _140
REMARK   58  A    between atoms: _140  and  _141
REMARK   59  A    between atoms: _146  and  _148
REMARK   60  A    between atoms: _148  and  _149
REMARK   61  A    between atoms: _148  and  _151
REMARK   62  A    between atoms: _151  and  _152
REMARK   63  A    between atoms: _155  and  _157
REMARK   64  A    between atoms: _157  and  _158
REMARK   65  A    between atoms: _157  and  _160
REMARK   66  A    between atoms: _160  and  _161
REMARK   67  A    between atoms: _167  and  _169
REMARK   68  A    between atoms: _169  and  _170
REMARK   69  A    between atoms: _169  and  _172
REMARK   70  A    between atoms: _172  and  _173
REMARK   71  A    between atoms: _173  and  _174
REMARK   72  A    between atoms: _174  and  _175
REMARK   73  A    between atoms: _175  and  _176
REMARK   74  A    between atoms: _180  and  _182
REMARK   75  A    between atoms: _182  and  _183
REMARK   76  A    between atoms: _182  and  _185
REMARK   77  A    between atoms: _185  and  _186
REMARK   78  A    between atoms: _191  and  _193
REMARK   79  A    between atoms: _193  and  _194
REMARK   80  A    between atoms: _193  and  _196
REMARK   81  A    between atoms: _196  and  _197
REMARK   82  A    between atoms: _200  and  _202
REMARK   83  A    between atoms: _202  and  _203
REMARK   84  A    between atoms: _202  and  _205
REMARK   85  A    between atoms: _205  and  _206
REMARK   86  A    between atoms: _209  and  _211
REMARK   87  A    between atoms: _211  and  _212
REMARK   88  A    between atoms: _211  and  _214
REMARK   89  A    between atoms: _214  and  _215
REMARK   90  A    between atoms: _218  and  _220
REMARK   91  A    between atoms: _220  and  _221
REMARK   92  A    between atoms: _220  and  _223
REMARK   93  A    between atoms: _225  and  _227
REMARK   94  A    between atoms: _227  and  _228
REMARK   95  A    between atoms: _227  and  _230
REMARK   96  A    between atoms: _230  and  _231
REMARK   97  A    between atoms: _231  and  _232
REMARK   98  A    between atoms: _232  and  _233
REMARK   99  A    between atoms: _242  and  _244
REMARK  100  A    between atoms: _244  and  _245
REMARK  101  A    between atoms: _244  and  _247
REMARK  102  A    between atoms: _247  and  _248
REMARK  103  A    between atoms: _248  and  _249
REMARK  104  A    between atoms: _249  and  _250
REMARK  105  A    between atoms: _250  and  _251
REMARK  106  A    between atoms: _255  and  _257
REMARK  107  A    between atoms: _257  and  _258
REMARK  108  A    between atoms: _257  and  _260
REMARK  109  A    between atoms: _260  and  _261
REMARK  110  A    between atoms: _264  and  _266
REMARK  111  A    between atoms: _266  and  _267
REMARK  112  A    between atoms: _270  and  _272
REMARK  113  A    between atoms: _272  and  _273
REMARK  114  A    between atoms: _272  and  _275
REMARK  115  A    between atoms: _278  and  _280
REMARK  116  A    between atoms: _280  and  _281
REMARK  117  A    between atoms: _280  and  _283
REMARK  118  A    between atoms: _283  and  _284
REMARK  119  A    between atoms: _289  and  _291
REMARK  120  A    between atoms: _291  and  _292
REMARK  121  A    between atoms: _291  and  _294
REMARK  122  A    between atoms: _294  and  _295
REMARK  123  A    between atoms: _301  and  _303
REMARK  124  A    between atoms: _303  and  _304
REMARK  125  A    between atoms: _303  and  _306
REMARK  126  A    between atoms: _306  and  _307
REMARK  127  A    between atoms: _310  and  _312
REMARK  128  A    between atoms: _312  and  _313
REMARK  129  A    between atoms: _316  and  _318
REMARK  130  A    between atoms: _318  and  _319
REMARK  131  A    between atoms: _318  and  _321
REMARK  132  A    between atoms: _321  and  _322
REMARK  133  A    between atoms: _324  and  _326
REMARK  134  A    between atoms: _326  and  _327
REMARK  135  A    between atoms: _326  and  _329
REMARK                            x       y       z     vdW  Elec       q    Type
REMARK                         _______ _______ _______ _____ _____    ______ ____
ROOT
ATOM      1  CA  LEU A   1      39.524  -4.887  33.038  0.00  0.00    +0.133 C 
ENDROOT
BRANCH   1   2
ATOM      2  N   LEU A   1      38.826  -5.713  34.015  0.00  0.00    -0.239 NA
ATOM      3  H   LEU A   1      38.295  -5.254  34.782  0.00  0.00    +0.142 HD
ENDBRANCH   1   2
BRANCH   1   4
ATOM      4  C   LEU A   1      40.787  -4.276  33.651  0.00  0.00    +0.224 C 
ATOM      5  O   LEU A   1      41.474  -3.483  33.016  0.00  0.00    -0.287 OA
ENDBRANCH   1   4
BRANCH   1   6
ATOM      6  CB  LEU A   1      38.590  -3.800  32.484  0.00  0.00    +0.025 C 
BRANCH   6   7
ATOM      7  CG  LEU A   1      37.231  -4.329  32.005  0.00  0.00    +0.002 C 
ATOM      8  CD2 LEU A   1      36.342  -3.206  31.479  0.00  0.00    +0.000 C 
ATOM      9  CD1 LEU A   1      37.428  -5.399  30.948  0.00  0.00    +0.000 C 
ENDBRANCH   6   7
ENDBRANCH   1   6
TORSDOF 4
REMARK  Name = ../refined-set-2016/4g8y/4g8y_pocket.pdb
REMARK  135 active torsions:
REMARK  status: ('A' for Active; 'I' for Inactive)
REMARK    1  A    between atoms: _1  and  _3
REMARK    2  A    between atoms: _3  and  _4
REMARK    3  A    between atoms: _7  and  _9
REMARK    4  A    between atoms: _9  and  _10
REMARK    5  A    between atoms: _9  and  _12
REMARK    6  A    between atoms: _12  and  _13
REMARK    7  A    between atoms: _13  and  _14
REMARK    8  A    between atoms: _14  and  _15
REMARK    9  A    between atoms: _15  and  _16
REMARK   10  A    between atoms: _20  and  _22
REMARK   11  A    between atoms: _22  and  _23
REMARK   12  A    between atoms: _22  and  _25
REMARK   13  A    between atoms: _25  and  _26
REMARK   14  A    between atoms: _32  and  _34
REMARK   15  A    between atoms: _34  and  _35
REMARK   16  A    between atoms: _34  and  _37
REMARK   17  A    between atoms: _37  and  _38
REMARK   18  A    between atoms: _38  and  _39
REMARK   19  A    between atoms: _39  and  _40
REMARK   20  A    between atoms: _49  and  _51
REMARK   21  A    between atoms: _51  and  _52
REMARK   22  A    between atoms: _51  and  _54
REMARK   23  A    between atoms: _54  and  _55
REMARK   24  A    between atoms: _55  and  _56
REMARK   25  A    between atoms: _61  and  _63
REMARK   26  A    between atoms: _63  and  _64
REMARK   27  A    between atoms: _63  and  _66
REMARK   28  A    between atoms: _66  and  _67
REMARK   29  A    between atoms: _72  and  _74
REMARK   30  A    between atoms: _74  and  _75
REMARK   31  A    between atoms: _74  and  _77
REMARK   32  A    between atoms: _77  and  _78
REMARK   33  A    between atoms: _78  and  _79
REMARK   34  A    between atoms: _81  and  _83
REMARK   35  A    between atoms: _83  and  _84
REMARK   36  A    between atoms: _83  and  _86
REMARK   37  A    between atoms: _86  and  _87
REMARK   38  A    between atoms: _90  and  _92
REMARK   39  A    between atoms: _92  and  _93
REMARK   40  A    between atoms: _92  and  _95
REMARK   41  A    between atoms: _95  and  _96
REMARK   42  A    between atoms: _96  and  _97
REMARK   43  A    between atoms: _97  and  _98
REMARK   44  A    between atoms: _107  and  _109
REMARK   45  A    between atoms: _109  and  _110
REMARK   46  A    between atoms: _109  and  _112
REMARK   47  A    between atoms: _112  and  _113
REMARK   48  A    between atoms: _113  and  _114
REMARK   49  A    between atoms: _114  and  _115
REMARK   50  A    between atoms: _115  and  _116
REMARK   51  A    between atoms: _121  and  _122
REMARK   52  A    between atoms: _127  and  _129
REMARK   53  A    between atoms: _129  and  _130
REMARK   54  A    between atoms: _129  and  _132
REMARK   55  A    between atoms: _135  and  _137
REMARK   56  A    between atoms: _137  and  _138
REMARK   57  A    between atoms: _137  and  _140
REMARK   58  A    between atoms: _140  and  _141
REMARK   59  A    between atoms: _146  and  _148
REMARK   60  A    between atoms: _148  and  _149
REMARK   61  A    between atoms: _148  and  _151
REMARK   62  A    between atoms: _151  and  _152
REMARK   63  A    between atoms: _155  and  _157
REMARK   64  A    between atoms: _157  and  _158
REMARK   65  A    between atoms: _157  and  _160
REMARK   66  A    between atoms: _160  and  _161
REMARK   67  A    between atoms: _167  and  _169
REMARK   68  A    between atoms: _169  and  _170
REMARK   69  A    between atoms: _169  and  _172
REMARK   70  A    between atoms: _172  and  _173
REMARK   71  A    between atoms: _173  and  _174
REMARK   72  A    between atoms: _174  and  _175
REMARK   73  A    between atoms: _175  and  _176
REMARK   74  A    between atoms: _180  and  _182
REMARK   75  A    between atoms: _182  and  _183
REMARK   76  A    between atoms: _182  and  _185
REMARK   77  A    between atoms: _185  and  _186
REMARK   78  A    between atoms: _191  and  _193
REMARK   79  A    between atoms: _193  and  _194
REMARK   80  A    between atoms: _193  and  _196
REMARK   81  A    between atoms: _196  and  _197
REMARK   82  A    between atoms: _200  and  _202
REMARK   83  A    between atoms: _202  and  _203
REMARK   84  A    between atoms: _202  and  _205
REMARK   85  A    between atoms: _205  and  _206
REMARK   86  A    between atoms: _209  and  _211
REMARK   87  A    between atoms: _211  and  _212
REMARK   88  A    between atoms: _211  and  _214
REMARK   89  A    between atoms: _214  and  _215
REMARK   90  A    between atoms: _218  and  _220
REMARK   91  A    between atoms: _220  and  _221
REMARK   92  A    between atoms: _220  and  _223
REMARK   93  A    between atoms: _225  and  _227
REMARK   94  A    between atoms: _227  and  _228
REMARK   95  A    between atoms: _227  and  _230
REMARK   96  A    between atoms: _230  and  _231
REMARK   97  A    between atoms: _231  and  _232
REMARK   98  A    between atoms: _232  and  _233
REMARK   99  A    between atoms: _242  and  _244
REMARK  100  A    between atoms: _244  and  _245
REMARK  101  A    between atoms: _244  and  _247
REMARK  102  A    between atoms: _247  and  _248
REMARK  103  A    between atoms: _248  and  _249
REMARK  104  A    between atoms: _249  and  _250
REMARK  105  A    between atoms: _250  and  _251
REMARK  106  A    between atoms: _255  and  _257
REMARK  107  A    between atoms: _257  and  _258
REMARK  108  A    between atoms: _257  and  _260
REMARK  109  A    between atoms: _260  and  _261
REMARK  110  A    between atoms: _264  and  _266
REMARK  111  A    between atoms: _266  and  _267
REMARK  112  A    between atoms: _270  and  _272
REMARK  113  A    between atoms: _272  and  _273
REMARK  114  A    between atoms: _272  and  _275
REMARK  115  A    between atoms: _278  and  _280
REMARK  116  A    between atoms: _280  and  _281
REMARK  117  A    between atoms: _280  and  _283
REMARK  118  A    between atoms: _283  and  _284
REMARK  119  A    between atoms: _289  and  _291
REMARK  120  A    between atoms: _291  and  _292
REMARK  121  A    between atoms: _291  and  _294
REMARK  122  A    between atoms: _294  and  _295
REMARK  123  A    between atoms: _301  and  _303
REMARK  124  A    between atoms: _303  and  _304
REMARK  125  A    between atoms: _303  and  _306
REMARK  126  A    between atoms: _306  and  _307
REMARK  127  A    between atoms: _310  and  _312
REMARK  128  A    between atoms: _312  and  _313
REMARK  129  A    between atoms: _316  and  _318
REMARK  130  A    between atoms: _318  and  _319
REMARK  131  A    between atoms: _318  and  _321
REMARK  132  A    between atoms: _321  and  _322
REMARK  133  A    between atoms: _324  and  _326
REMARK  134  A    between atoms: _326  and  _327
REMARK  135  A    between atoms: _326  and  _329
REMARK                            x       y       z     vdW  Elec       q    Type
REMARK                         _______ _______ _______ _____ _____    ______ ____
ROOT
ATOM      1  NE  ARG A   1      46.891  -1.827  28.747  0.00  0.00    -0.265 N 
ATOM      2  HE  ARG A   1      47.686  -1.173  28.898  0.00  0.00    +0.259 HD
ATOM      3  CZ  ARG A   1      45.994  -1.510  27.816  0.00  0.00    +0.342 C 
ATOM      4  NH2 ARG A   1      44.956  -2.303  27.586  0.00  0.00    -0.292 N 
ATOM      5 HH21 ARG A   1      44.839  -3.179  28.135  0.00  0.00    +0.255 HD
ATOM      6 HH22 ARG A   1      44.259  -2.049  26.857  0.00  0.00    +0.255 HD
ATOM      7  NH1 ARG A   1      46.138  -0.397  27.109  0.00  0.00    -0.292 N 
ATOM      8 HH11 ARG A   1      46.951   0.227  27.282  0.00  0.00    +0.255 HD
ATOM      9 HH12 ARG A   1      45.438  -0.149  26.381  0.00  0.00    +0.255 HD
ENDROOT
BRANCH   1  10
ATOM     10  CD  ARG A   1      46.834  -3.030  29.570  0.00  0.00    +0.174 C 
BRANCH  10  11
ATOM     11  CG  ARG A   1      46.433  -2.749  31.003  0.00  0.00    +0.045 C 
BRANCH  11  12
ATOM     12  CB  ARG A   1      47.489  -3.247  31.989  0.00  0.00    +0.029 C 
BRANCH  12  13
ATOM     13  CA  ARG A   1      46.945  -3.612  33.372  0.00  0.00    +0.133 C 
BRANCH  13  14
ATOM     14  N   ARG A   1      46.584  -5.022  33.428  0.00  0.00    -0.239 NA
ATOM     15  H   ARG A   1      45.577  -5.281  33.401  0.00  0.00    +0.142 HD
ENDBRANCH  13  14
BRANCH  13  16
ATOM     16  C   ARG A   1      45.693  -2.792  33.651  0.00  0.00    +0.224 C 
ATOM     17  O   ARG A   1      44.584  -3.318  33.613  0.00  0.00    -0.287 OA
ENDBRANCH  13  16
ENDBRANCH  12  13
ENDBRANCH  11  12
ENDBRANCH  10  11
ENDBRANCH   1  10
TORSDOF 6
REMARK  Name = ../refined-set-2016/4g8y/4g8y_pocket.pdb
REMARK  135 active torsions:
REMARK  status: ('A' for Active; 'I' for Inactive)
REMARK    1  A    between atoms: _1  and  _3
REMARK    2  A    between atoms: _3  and  _4
REMARK    3  A    between atoms: _7  and  _9
REMARK    4  A    between atoms: _9  and  _10
REMARK    5  A    between atoms: _9  and  _12
REMARK    6  A    between atoms: _12  and  _13
REMARK    7  A    between atoms: _13  and  _14
REMARK    8  A    between atoms: _14  and  _15
REMARK    9  A    between atoms: _15  and  _16
REMARK   10  A    between atoms: _20  and  _22
REMARK   11  A    between atoms: _22  and  _23
REMARK   12  A    between atoms: _22  and  _25
REMARK   13  A    between atoms: _25  and  _26
REMARK   14  A    between atoms: _32  and  _34
REMARK   15  A    between atoms: _34  and  _35
REMARK   16  A    between atoms: _34  and  _37
REMARK   17  A    between atoms: _37  and  _38
REMARK   18  A    between atoms: _38  and  _39
REMARK   19  A    between atoms: _39  and  _40
REMARK   20  A    between atoms: _49  and  _51
REMARK   21  A    between atoms: _51  and  _52
REMARK   22  A    between atoms: _51  and  _54
REMARK   23  A    between atoms: _54  and  _55
REMARK   24  A    between atoms: _55  and  _56
REMARK   25  A    between atoms: _61  and  _63
REMARK   26  A    between atoms: _63  and  _64
REMARK   27  A    between atoms: _63  and  _66
REMARK   28  A    between atoms: _66  and  _67
REMARK   29  A    between atoms: _72  and  _74
REMARK   30  A    between atoms: _74  and  _75
REMARK   31  A    between atoms: _74  and  _77
REMARK   32  A    between atoms: _77  and  _78
REMARK   33  A    between atoms: _78  and  _79
REMARK   34  A    between atoms: _81  and  _83
REMARK   35  A    between atoms: _83  and  _84
REMARK   36  A    between atoms: _83  and  _86
REMARK   37  A    between atoms: _86  and  _87
REMARK   38  A    between atoms: _90  and  _92
REMARK   39  A    between atoms: _92  and  _93
REMARK   40  A    between atoms: _92  and  _95
REMARK   41  A    between atoms: _95  and  _96
REMARK   42  A    between atoms: _96  and  _97
REMARK   43  A    between atoms: _97  and  _98
REMARK   44  A    between atoms: _107  and  _109
REMARK   45  A    between atoms: _109  and  _110
REMARK   46  A    between atoms: _109  and  _112
REMARK   47  A    between atoms: _112  and  _113
REMARK   48  A    between atoms: _113  and  _114
REMARK   49  A    between atoms: _114  and  _115
REMARK   50  A    between atoms: _115  and  _116
REMARK   51  A    between atoms: _121  and  _122
REMARK   52  A    between atoms: _127  and  _129
REMARK   53  A    between atoms: _129  and  _130
REMARK   54  A    between atoms: _129  and  _132
REMARK   55  A    between atoms: _135  and  _137
REMARK   56  A    between atoms: _137  and  _138
REMARK   57  A    between atoms: _137  and  _140
REMARK   58  A    between atoms: _140  and  _141
REMARK   59  A    between atoms: _146  and  _148
REMARK   60  A    between atoms: _148  and  _149
REMARK   61  A    between atoms: _148  and  _151
REMARK   62  A    between atoms: _151  and  _152
REMARK   63  A    between atoms: _155  and  _157
REMARK   64  A    between atoms: _157  and  _158
REMARK   65  A    between atoms: _157  and  _160
REMARK   66  A    between atoms: _160  and  _161
REMARK   67  A    between atoms: _167  and  _169
REMARK   68  A    between atoms: _169  and  _170
REMARK   69  A    between atoms: _169  and  _172
REMARK   70  A    between atoms: _172  and  _173
REMARK   71  A    between atoms: _173  and  _174
REMARK   72  A    between atoms: _174  and  _175
REMARK   73  A    between atoms: _175  and  _176
REMARK   74  A    between atoms: _180  and  _182
REMARK   75  A    between atoms: _182  and  _183
REMARK   76  A    between atoms: _182  and  _185
REMARK   77  A    between atoms: _185  and  _186
REMARK   78  A    between atoms: _191  and  _193
REMARK   79  A    between atoms: _193  and  _194
REMARK   80  A    between atoms: _193  and  _196
REMARK   81  A    between atoms: _196  and  _197
REMARK   82  A    between atoms: _200  and  _202
REMARK   83  A    between atoms: _202  and  _203
REMARK   84  A    between atoms: _202  and  _205
REMARK   85  A    between atoms: _205  and  _206
REMARK   86  A    between atoms: _209  and  _211
REMARK   87  A    between atoms: _211  and  _212
REMARK   88  A    between atoms: _211  and  _214
REMARK   89  A    between atoms: _214  and  _215
REMARK   90  A    between atoms: _218  and  _220
REMARK   91  A    between atoms: _220  and  _221
REMARK   92  A    between atoms: _220  and  _223
REMARK   93  A    between atoms: _225  and  _227
REMARK   94  A    between atoms: _227  and  _228
REMARK   95  A    between atoms: _227  and  _230
REMARK   96  A    between atoms: _230  and  _231
REMARK   97  A    between atoms: _231  and  _232
REMARK   98  A    between atoms: _232  and  _233
REMARK   99  A    between atoms: _242  and  _244
REMARK  100  A    between atoms: _244  and  _245
REMARK  101  A    between atoms: _244  and  _247
REMARK  102  A    between atoms: _247  and  _248
REMARK  103  A    between atoms: _248  and  _249
REMARK  104  A    between atoms: _249  and  _250
REMARK  105  A    between atoms: _250  and  _251
REMARK  106  A    between atoms: _255  and  _257
REMARK  107  A    between atoms: _257  and  _258
REMARK  108  A    between atoms: _257  and  _260
REMARK  109  A    between atoms: _260  and  _261
REMARK  110  A    between atoms: _264  and  _266
REMARK  111  A    between atoms: _266  and  _267
REMARK  112  A    between atoms: _270  and  _272
REMARK  113  A    between atoms: _272  and  _273
REMARK  114  A    between atoms: _272  and  _275
REMARK  115  A    between atoms: _278  and  _280
REMARK  116  A    between atoms: _280  and  _281
REMARK  117  A    between atoms: _280  and  _283
REMARK  118  A    between atoms: _283  and  _284
REMARK  119  A    between atoms: _289  and  _291
REMARK  120  A    between atoms: _291  and  _292
REMARK  121  A    between atoms: _291  and  _294
REMARK  122  A    between atoms: _294  and  _295
REMARK  123  A    between atoms: _301  and  _303
REMARK  124  A    between atoms: _303  and  _304
REMARK  125  A    between atoms: _303  and  _306
REMARK  126  A    between atoms: _306  and  _307
REMARK  127  A    between atoms: _310  and  _312
REMARK  128  A    between atoms: _312  and  _313
REMARK  129  A    between atoms: _316  and  _318
REMARK  130  A    between atoms: _318  and  _319
REMARK  131  A    between atoms: _318  and  _321
REMARK  132  A    between atoms: _321  and  _322
REMARK  133  A    between atoms: _324  and  _326
REMARK  134  A    between atoms: _326  and  _327
REMARK  135  A    between atoms: _326  and  _329
REMARK                            x       y       z     vdW  Elec       q    Type
REMARK                         _______ _______ _______ _____ _____    ______ ____
ROOT
ATOM      1  C   VAL A   3      38.503   2.762  28.332  0.00  0.00    +0.241 C 
ATOM      2  N   ASN A   4      37.306   2.882  28.902  0.00  0.00    -0.297 N 
ATOM      3  H   ASN A   4      37.118   3.699  29.517  0.00  0.00    +0.150 HD
ATOM      4  O   VAL A   3      38.815   1.798  27.629  0.00  0.00    -0.273 OA
ENDROOT
BRANCH   2   5
ATOM      5  CA  ASN A   4      36.247   1.894  28.686  0.00  0.00    +0.158 C 
BRANCH   5   6
ATOM      6  C   ASN A   4      34.848   2.448  28.958  0.00  0.00    +0.241 C 
ATOM      7  O   ASN A   4      34.633   3.140  29.945  0.00  0.00    -0.273 OA
ATOM      8  N   THR A   5      33.895   2.125  28.088  0.00  0.00    -0.295 N 
ATOM      9  H   THR A   5      34.120   1.468  27.314  0.00  0.00    +0.150 HD
BRANCH   8  10
ATOM     10  CA  THR A   5      32.543   2.665  28.188  0.00  0.00    +0.176 C 
BRANCH  10  11
ATOM     11  C   THR A   5      31.514   1.588  28.513  0.00  0.00    +0.243 C 
ATOM     12  N   PHE A   6      30.643   1.872  29.479  0.00  0.00    -0.298 N 
ATOM     13  H   PHE A   6      30.735   2.768  29.999  0.00  0.00    +0.150 HD
ATOM     14  O   THR A   5      31.510   0.517  27.900  0.00  0.00    -0.273 OA
BRANCH  12  15
ATOM     15  CA  PHE A   6      29.565   0.958  29.824  0.00  0.00    +0.141 C 
BRANCH  15  16
ATOM     16  C   PHE A   6      28.253   1.509  29.306  0.00  0.00    +0.227 C 
ATOM     17  O   PHE A   6      27.982   2.695  29.442  0.00  0.00    -0.286 OA
ENDBRANCH  15  16
BRANCH  15  18
ATOM     18  CB  PHE A   6      29.505   0.739  31.340  0.00  0.00    +0.054 C 
BRANCH  18  19
ATOM     19  CG  PHE A   6      30.669  -0.046  31.877  0.00  0.00    -0.020 A 
ATOM     20  CD2 PHE A   6      31.774   0.597  32.426  0.00  0.00    -0.004 A 
ATOM     21  CE2 PHE A   6      32.846  -0.138  32.916  0.00  0.00    -0.000 A 
ATOM     22  CZ  PHE A   6      32.823  -1.520  32.854  0.00  0.00    -0.000 A 
ATOM     23  CE1 PHE A   6      31.736  -2.163  32.296  0.00  0.00    -0.000 A 
ATOM     24  CD1 PHE A   6      30.669  -1.425  31.815  0.00  0.00    -0.004 A 
ENDBRANCH  18  19
ENDBRANCH  15  18
ENDBRANCH  12  15
ENDBRANCH  10  11
BRANCH  10  25
ATOM     25  CB  THR A   5      32.138   3.352  26.873  0.00  0.00    +0.137 C 
ATOM     26  CG2 THR A   5      30.705   3.885  26.955  0.00  0.00    +0.034 C 
BRANCH  25  27
ATOM     27  OG1 THR A   5      33.049   4.425  26.601  0.00  0.00    -0.382 OA
ATOM     28  HG1 THR A   5      33.016   5.080  27.342  0.00  0.00    +0.210 HD
ENDBRANCH  25  27
ENDBRANCH  10  25
ENDBRANCH   8  10
ENDBRANCH   5   6
BRANCH   5  29
ATOM     29  CB  ASN A   4      36.498   0.655  29.544  0.00  0.00    +0.114 C 
BRANCH  29  30
ATOM     30  CG  ASN A   4      35.562  -0.479  29.208  0.00  0.00    +0.222 C 
ATOM     31  ND2 ASN A   4      34.561  -0.701  30.058  0.00  0.00    -0.329 N 
ATOM     32 HD21 ASN A   4      34.448  -0.097  30.897  0.00  0.00    +0.145 HD
ATOM     33 HD22 ASN A   4      33.893  -1.478  29.883  0.00  0.00    +0.145 HD
ATOM     34  OD1 ASN A   4      35.745  -1.161  28.200  0.00  0.00    -0.275 OA
ENDBRANCH  29  30
ENDBRANCH   5  29
ENDBRANCH   2   5
BRANCH   1  35
ATOM     35  CA  VAL A   3      39.507   3.885  28.596  0.00  0.00    +0.149 C 
BRANCH  35  38
ATOM     36  C   PRO A   2      41.655   3.857  29.799  0.00  0.00    +0.241 C 
ATOM     37  O   PRO A   2      41.363   4.844  30.475  0.00  0.00    -0.273 OA
ATOM     38  N   VAL A   3      40.848   3.340  28.872  0.00  0.00    -0.297 N 
ATOM     39  H   VAL A   3      41.178   2.521  28.323  0.00  0.00    +0.150 HD
BRANCH  36  43
ATOM     40  C   LYS A   1      42.402   0.959  30.838  0.00  0.00    +0.241 C 
ATOM     41  O   LYS A   1      41.668   1.425  31.704  0.00  0.00    -0.273 OA
ATOM     42  N   PRO A   2      43.032   1.724  29.940  0.00  0.00    -0.272 N 
ATOM     43  CA  PRO A   2      43.020   3.187  30.045  0.00  0.00    +0.152 C 
ATOM     44  CB  PRO A   2      44.055   3.620  29.003  0.00  0.00    +0.031 C 
ATOM     45  CG  PRO A   2      44.130   2.495  28.048  0.00  0.00    +0.024 C 
ATOM     46  CD  PRO A   2      43.888   1.252  28.840  0.00  0.00    +0.094 C 
BRANCH  40  47
ATOM     47  CA  LYS A   1      42.662  -0.542  30.782  0.00  0.00    +0.145 C 
BRANCH  47  48
ATOM     48  N   LYS A   1      43.197  -0.918  32.090  0.00  0.00    -0.238 NA
ATOM     49  H   LYS A   1      42.727  -1.653  32.656  0.00  0.00    +0.142 HD
ENDBRANCH  47  48
BRANCH  47  50
ATOM     50  CB  LYS A   1      41.369  -1.301  30.469  0.00  0.00    +0.026 C 
BRANCH  50  51
ATOM     51  CG  LYS A   1      40.893  -1.102  29.033  0.00  0.00    -0.000 C 
BRANCH  51  52
ATOM     52  CD  LYS A   1      39.589  -1.839  28.749  0.00  0.00    -0.024 C 
BRANCH  52  53
ATOM     53  CE  LYS A   1      39.195  -1.694  27.273  0.00  0.00    -0.086 C 
BRANCH  53  54
ATOM     54  NZ  LYS A   1      37.942  -2.441  26.936  0.00  0.00    +0.380 N 
ATOM     55  HZ1 LYS A   1      37.157  -2.078  27.514  0.00  0.00    -0.089 HD
ATOM     56  HZ2 LYS A   1      38.080  -3.453  27.133  0.00  0.00    -0.089 HD
ATOM     57  HZ3 LYS A   1      37.722  -2.309  25.928  0.00  0.00    -0.089 HD
ENDBRANCH  53  54
ENDBRANCH  52  53
ENDBRANCH  51  52
ENDBRANCH  50  51
ENDBRANCH  47  50
ENDBRANCH  40  47
ENDBRANCH  36  43
ENDBRANCH  35  38
BRANCH  35  58
ATOM     58  CB  VAL A   3      39.508   4.838  27.367  0.00  0.00    +0.027 C 
ATOM     59  CG2 VAL A   3      40.431   6.036  27.601  0.00  0.00    +0.002 C 
ATOM     60  CG1 VAL A   3      38.090   5.322  27.045  0.00  0.00    +0.002 C 
ENDBRANCH  35  58
ENDBRANCH   1  35
TORSDOF 23
REMARK  Name = ../refined-set-2016/4g8y/4g8y_pocket.pdb
REMARK  135 active torsions:
REMARK  status: ('A' for Active; 'I' for Inactive)
REMARK    1  A    between atoms: _1  and  _3
REMARK    2  A    between atoms: _3  and  _4
REMARK    3  A    between atoms: _7  and  _9
REMARK    4  A    between atoms: _9  and  _10
REMARK    5  A    between atoms: _9  and  _12
REMARK    6  A    between atoms: _12  and  _13
REMARK    7  A    between atoms: _13  and  _14
REMARK    8  A    between atoms: _14  and  _15
REMARK    9  A    between atoms: _15  and  _16
REMARK   10  A    between atoms: _20  and  _22
REMARK   11  A    between atoms: _22  and  _23
REMARK   12  A    between atoms: _22  and  _25
REMARK   13  A    between atoms: _25  and  _26
REMARK   14  A    between atoms: _32  and  _34
REMARK   15  A    between atoms: _34  and  _35
REMARK   16  A    between atoms: _34  and  _37
REMARK   17  A    between atoms: _37  and  _38
REMARK   18  A    between atoms: _38  and  _39
REMARK   19  A    between atoms: _39  and  _40
REMARK   20  A    between atoms: _49  and  _51
REMARK   21  A    between atoms: _51  and  _52
REMARK   22  A    between atoms: _51  and  _54
REMARK   23  A    between atoms: _54  and  _55
REMARK   24  A    between atoms: _55  and  _56
REMARK   25  A    between atoms: _61  and  _63
REMARK   26  A    between atoms: _63  and  _64
REMARK   27  A    between atoms: _63  and  _66
REMARK   28  A    between atoms: _66  and  _67
REMARK   29  A    between atoms: _72  and  _74
REMARK   30  A    between atoms: _74  and  _75
REMARK   31  A    between atoms: _74  and  _77
REMARK   32  A    between atoms: _77  and  _78
REMARK   33  A    between atoms: _78  and  _79
REMARK   34  A    between atoms: _81  and  _83
REMARK   35  A    between atoms: _83  and  _84
REMARK   36  A    between atoms: _83  and  _86
REMARK   37  A    between atoms: _86  and  _87
REMARK   38  A    between atoms: _90  and  _92
REMARK   39  A    between atoms: _92  and  _93
REMARK   40  A    between atoms: _92  and  _95
REMARK   41  A    between atoms: _95  and  _96
REMARK   42  A    between atoms: _96  and  _97
REMARK   43  A    between atoms: _97  and  _98
REMARK   44  A    between atoms: _107  and  _109
REMARK   45  A    between atoms: _109  and  _110
REMARK   46  A    between atoms: _109  and  _112
REMARK   47  A    between atoms: _112  and  _113
REMARK   48  A    between atoms: _113  and  _114
REMARK   49  A    between atoms: _114  and  _115
REMARK   50  A    between atoms: _115  and  _116
REMARK   51  A    between atoms: _121  and  _122
REMARK   52  A    between atoms: _127  and  _129
REMARK   53  A    between atoms: _129  and  _130
REMARK   54  A    between atoms: _129  and  _132
REMARK   55  A    between atoms: _135  and  _137
REMARK   56  A    between atoms: _137  and  _138
REMARK   57  A    between atoms: _137  and  _140
REMARK   58  A    between atoms: _140  and  _141
REMARK   59  A    between atoms: _146  and  _148
REMARK   60  A    between atoms: _148  and  _149
REMARK   61  A    between atoms: _148  and  _151
REMARK   62  A    between atoms: _151  and  _152
REMARK   63  A    between atoms: _155  and  _157
REMARK   64  A    between atoms: _157  and  _158
REMARK   65  A    between atoms: _157  and  _160
REMARK   66  A    between atoms: _160  and  _161
REMARK   67  A    between atoms: _167  and  _169
REMARK   68  A    between atoms: _169  and  _170
REMARK   69  A    between atoms: _169  and  _172
REMARK   70  A    between atoms: _172  and  _173
REMARK   71  A    between atoms: _173  and  _174
REMARK   72  A    between atoms: _174  and  _175
REMARK   73  A    between atoms: _175  and  _176
REMARK   74  A    between atoms: _180  and  _182
REMARK   75  A    between atoms: _182  and  _183
REMARK   76  A    between atoms: _182  and  _185
REMARK   77  A    between atoms: _185  and  _186
REMARK   78  A    between atoms: _191  and  _193
REMARK   79  A    between atoms: _193  and  _194
REMARK   80  A    between atoms: _193  and  _196
REMARK   81  A    between atoms: _196  and  _197
REMARK   82  A    between atoms: _200  and  _202
REMARK   83  A    between atoms: _202  and  _203
REMARK   84  A    between atoms: _202  and  _205
REMARK   85  A    between atoms: _205  and  _206
REMARK   86  A    between atoms: _209  and  _211
REMARK   87  A    between atoms: _211  and  _212
REMARK   88  A    between atoms: _211  and  _214
REMARK   89  A    between atoms: _214  and  _215
REMARK   90  A    between atoms: _218  and  _220
REMARK   91  A    between atoms: _220  and  _221
REMARK   92  A    between atoms: _220  and  _223
REMARK   93  A    between atoms: _225  and  _227
REMARK   94  A    between atoms: _227  and  _228
REMARK   95  A    between atoms: _227  and  _230
REMARK   96  A    between atoms: _230  and  _231
REMARK   97  A    between atoms: _231  and  _232
REMARK   98  A    between atoms: _232  and  _233
REMARK   99  A    between atoms: _242  and  _244
REMARK  100  A    between atoms: _244  and  _245
REMARK  101  A    between atoms: _244  and  _247
REMARK  102  A    between atoms: _247  and  _248
REMARK  103  A    between atoms: _248  and  _249
REMARK  104  A    between atoms: _249  and  _250
REMARK  105  A    between atoms: _250  and  _251
REMARK  106  A    between atoms: _255  and  _257
REMARK  107  A    between atoms: _257  and  _258
REMARK  108  A    between atoms: _257  and  _260
REMARK  109  A    between atoms: _260  and  _261
REMARK  110  A    between atoms: _264  and  _266
REMARK  111  A    between atoms: _266  and  _267
REMARK  112  A    between atoms: _270  and  _272
REMARK  113  A    between atoms: _272  and  _273
REMARK  114  A    between atoms: _272  and  _275
REMARK  115  A    between atoms: _278  and  _280
REMARK  116  A    between atoms: _280  and  _281
REMARK  117  A    between atoms: _280  and  _283
REMARK  118  A    between atoms: _283  and  _284
REMARK  119  A    between atoms: _289  and  _291
REMARK  120  A    between atoms: _291  and  _292
REMARK  121  A    between atoms: _291  and  _294
REMARK  122  A    between atoms: _294  and  _295
REMARK  123  A    between atoms: _301  and  _303
REMARK  124  A    between atoms: _303  and  _304
REMARK  125  A    between atoms: _303  and  _306
REMARK  126  A    between atoms: _306  and  _307
REMARK  127  A    between atoms: _310  and  _312
REMARK  128  A    between atoms: _312  and  _313
REMARK  129  A    between atoms: _316  and  _318
REMARK  130  A    between atoms: _318  and  _319
REMARK  131  A    between atoms: _318  and  _321
REMARK  132  A    between atoms: _321  and  _322
REMARK  133  A    between atoms: _324  and  _326
REMARK  134  A    between atoms: _326  and  _327
REMARK  135  A    between atoms: _326  and  _329
REMARK                            x       y       z     vdW  Elec       q    Type
REMARK                         _______ _______ _______ _____ _____    ______ ____
ROOT
ATOM      1  C   LYS A   1      39.244   3.809  12.898  0.00  0.00    +0.238 C 
ATOM      2  N   ASN A   2      39.284   2.479  12.849  0.00  0.00    -0.298 N 
ATOM      3  H   ASN A   2      38.520   1.926  13.288  0.00  0.00    +0.150 HD
ATOM      4  O   LYS A   1      40.117   4.518  12.396  0.00  0.00    -0.274 OA
ENDROOT
BRANCH   1   5
ATOM      5  CA  LYS A   1      38.036   4.444  13.587  0.00  0.00    +0.145 C 
BRANCH   5   6
ATOM      6  N   LYS A   1      36.805   3.674  13.411  0.00  0.00    -0.238 NA
ATOM      7  H   LYS A   1      36.247   3.405  14.246  0.00  0.00    +0.142 HD
ENDBRANCH   5   6
BRANCH   5   8
ATOM      8  CB  LYS A   1      38.321   4.644  15.076  0.00  0.00    +0.026 C 
BRANCH   8   9
ATOM      9  CG  LYS A   1      37.472   5.735  15.695  0.00  0.00    -0.000 C 
BRANCH   9  10
ATOM     10  CD  LYS A   1      37.694   5.850  17.197  0.00  0.00    -0.024 C 
BRANCH  10  11
ATOM     11  CE  LYS A   1      38.796   6.858  17.510  0.00  0.00    -0.086 C 
BRANCH  11  12
ATOM     12  NZ  LYS A   1      38.925   7.132  18.976  0.00  0.00    +0.380 N 
ATOM     13  HZ1 LYS A   1      39.149   6.247  19.474  0.00  0.00    -0.089 HD
ATOM     14  HZ2 LYS A   1      38.028   7.516  19.336  0.00  0.00    -0.089 HD
ATOM     15  HZ3 LYS A   1      39.687   7.822  19.133  0.00  0.00    -0.089 HD
ENDBRANCH  11  12
ENDBRANCH  10  11
ENDBRANCH   9  10
ENDBRANCH   8   9
ENDBRANCH   5   8
ENDBRANCH   1   5
BRANCH   2  16
ATOM     16  CA  ASN A   2      40.388   1.784  12.186  0.00  0.00    +0.146 C 
BRANCH  16  17
ATOM     17  C   ASN A   2      40.260   1.660  10.667  0.00  0.00    +0.227 C 
ATOM     18  O   ASN A   2      41.100   1.041  10.021  0.00  0.00    -0.286 OA
ENDBRANCH  16  17
BRANCH  16  19
ATOM     19  CB  ASN A   2      40.625   0.398  12.804  0.00  0.00    +0.112 C 
BRANCH  19  20
ATOM     20  CG  ASN A   2      39.497  -0.592  12.516  0.00  0.00    +0.222 C 
ATOM     21  ND2 ASN A   2      39.598  -1.772  13.127  0.00  0.00    -0.329 N 
ATOM     22 HD21 ASN A   2      40.394  -1.958  13.770  0.00  0.00    +0.145 HD
ATOM     23 HD22 ASN A   2      38.881  -2.507  12.960  0.00  0.00    +0.145 HD
ATOM     24  OD1 ASN A   2      38.570  -0.324  11.743  0.00  0.00    -0.275 OA
ENDBRANCH  19  20
ENDBRANCH  16  19
ENDBRANCH   2  16
TORSDOF 11
REMARK  Name = ../refined-set-2016/4g8y/4g8y_pocket.pdb
REMARK  135 active torsions:
REMARK  status: ('A' for Active; 'I' for Inactive)
REMARK    1  A    between atoms: _1  and  _3
REMARK    2  A    between atoms: _3  and  _4
REMARK    3  A    between atoms: _7  and  _9
REMARK    4  A    between atoms: _9  and  _10
REMARK    5  A    between atoms: _9  and  _12
REMARK    6  A    between atoms: _12  and  _13
REMARK    7  A    between atoms: _13  and  _14
REMARK    8  A    between atoms: _14  and  _15
REMARK    9  A    between atoms: _15  and  _16
REMARK   10  A    between atoms: _20  and  _22
REMARK   11  A    between atoms: _22  and  _23
REMARK   12  A    between atoms: _22  and  _25
REMARK   13  A    between atoms: _25  and  _26
REMARK   14  A    between atoms: _32  and  _34
REMARK   15  A    between atoms: _34  and  _35
REMARK   16  A    between atoms: _34  and  _37
REMARK   17  A    between atoms: _37  and  _38
REMARK   18  A    between atoms: _38  and  _39
REMARK   19  A    between atoms: _39  and  _40
REMARK   20  A    between atoms: _49  and  _51
REMARK   21  A    between atoms: _51  and  _52
REMARK   22  A    between atoms: _51  and  _54
REMARK   23  A    between atoms: _54  and  _55
REMARK   24  A    between atoms: _55  and  _56
REMARK   25  A    between atoms: _61  and  _63
REMARK   26  A    between atoms: _63  and  _64
REMARK   27  A    between atoms: _63  and  _66
REMARK   28  A    between atoms: _66  and  _67
REMARK   29  A    between atoms: _72  and  _74
REMARK   30  A    between atoms: _74  and  _75
REMARK   31  A    between atoms: _74  and  _77
REMARK   32  A    between atoms: _77  and  _78
REMARK   33  A    between atoms: _78  and  _79
REMARK   34  A    between atoms: _81  and  _83
REMARK   35  A    between atoms: _83  and  _84
REMARK   36  A    between atoms: _83  and  _86
REMARK   37  A    between atoms: _86  and  _87
REMARK   38  A    between atoms: _90  and  _92
REMARK   39  A    between atoms: _92  and  _93
REMARK   40  A    between atoms: _92  and  _95
REMARK   41  A    between atoms: _95  and  _96
REMARK   42  A    between atoms: _96  and  _97
REMARK   43  A    between atoms: _97  and  _98
REMARK   44  A    between atoms: _107  and  _109
REMARK   45  A    between atoms: _109  and  _110
REMARK   46  A    between atoms: _109  and  _112
REMARK   47  A    between atoms: _112  and  _113
REMARK   48  A    between atoms: _113  and  _114
REMARK   49  A    between atoms: _114  and  _115
REMARK   50  A    between atoms: _115  and  _116
REMARK   51  A    between atoms: _121  and  _122
REMARK   52  A    between atoms: _127  and  _129
REMARK   53  A    between atoms: _129  and  _130
REMARK   54  A    between atoms: _129  and  _132
REMARK   55  A    between atoms: _135  and  _137
REMARK   56  A    between atoms: _137  and  _138
REMARK   57  A    between atoms: _137  and  _140
REMARK   58  A    between atoms: _140  and  _141
REMARK   59  A    between atoms: _146  and  _148
REMARK   60  A    between atoms: _148  and  _149
REMARK   61  A    between atoms: _148  and  _151
REMARK   62  A    between atoms: _151  and  _152
REMARK   63  A    between atoms: _155  and  _157
REMARK   64  A    between atoms: _157  and  _158
REMARK   65  A    between atoms: _157  and  _160
REMARK   66  A    between atoms: _160  and  _161
REMARK   67  A    between atoms: _167  and  _169
REMARK   68  A    between atoms: _169  and  _170
REMARK   69  A    between atoms: _169  and  _172
REMARK   70  A    between atoms: _172  and  _173
REMARK   71  A    between atoms: _173  and  _174
REMARK   72  A    between atoms: _174  and  _175
REMARK   73  A    between atoms: _175  and  _176
REMARK   74  A    between atoms: _180  and  _182
REMARK   75  A    between atoms: _182  and  _183
REMARK   76  A    between atoms: _182  and  _185
REMARK   77  A    between atoms: _185  and  _186
REMARK   78  A    between atoms: _191  and  _193
REMARK   79  A    between atoms: _193  and  _194
REMARK   80  A    between atoms: _193  and  _196
REMARK   81  A    between atoms: _196  and  _197
REMARK   82  A    between atoms: _200  and  _202
REMARK   83  A    between atoms: _202  and  _203
REMARK   84  A    between atoms: _202  and  _205
REMARK   85  A    between atoms: _205  and  _206
REMARK   86  A    between atoms: _209  and  _211
REMARK   87  A    between atoms: _211  and  _212
REMARK   88  A    between atoms: _211  and  _214
REMARK   89  A    between atoms: _214  and  _215
REMARK   90  A    between atoms: _218  and  _220
REMARK   91  A    between atoms: _220  and  _221
REMARK   92  A    between atoms: _220  and  _223
REMARK   93  A    between atoms: _225  and  _227
REMARK   94  A    between atoms: _227  and  _228
REMARK   95  A    between atoms: _227  and  _230
REMARK   96  A    between atoms: _230  and  _231
REMARK   97  A    between atoms: _231  and  _232
REMARK   98  A    between atoms: _232  and  _233
REMARK   99  A    between atoms: _242  and  _244
REMARK  100  A    between atoms: _244  and  _245
REMARK  101  A    between atoms: _244  and  _247
REMARK  102  A    between atoms: _247  and  _248
REMARK  103  A    between atoms: _248  and  _249
REMARK  104  A    between atoms: _249  and  _250
REMARK  105  A    between atoms: _250  and  _251
REMARK  106  A    between atoms: _255  and  _257
REMARK  107  A    between atoms: _257  and  _258
REMARK  108  A    between atoms: _257  and  _260
REMARK  109  A    between atoms: _260  and  _261
REMARK  110  A    between atoms: _264  and  _266
REMARK  111  A    between atoms: _266  and  _267
REMARK  112  A    between atoms: _270  and  _272
REMARK  113  A    between atoms: _272  and  _273
REMARK  114  A    between atoms: _272  and  _275
REMARK  115  A    between atoms: _278  and  _280
REMARK  116  A    between atoms: _280  and  _281
REMARK  117  A    between atoms: _280  and  _283
REMARK  118  A    between atoms: _283  and  _284
REMARK  119  A    between atoms: _289  and  _291
REMARK  120  A    between atoms: _291  and  _292
REMARK  121  A    between atoms: _291  and  _294
REMARK  122  A    between atoms: _294  and  _295
REMARK  123  A    between atoms: _301  and  _303
REMARK  124  A    between atoms: _303  and  _304
REMARK  125  A    between atoms: _303  and  _306
REMARK  126  A    between atoms: _306  and  _307
REMARK  127  A    between atoms: _310  and  _312
REMARK  128  A    between atoms: _312  and  _313
REMARK  129  A    between atoms: _316  and  _318
REMARK  130  A    between atoms: _318  and  _319
REMARK  131  A    between atoms: _318  and  _321
REMARK  132  A    between atoms: _321  and  _322
REMARK  133  A    between atoms: _324  and  _326
REMARK  134  A    between atoms: _326  and  _327
REMARK  135  A    between atoms: _326  and  _329
REMARK                            x       y       z     vdW  Elec       q    Type
REMARK                         _______ _______ _______ _____ _____    ______ ____
ROOT
ATOM      1  C   ASP A   3      33.738   6.436  31.497  0.00  0.00    +0.241 C 
ATOM      2  O   ASP A   3      33.556   7.152  32.490  0.00  0.00    -0.273 OA
ATOM      3  N   CYS A   4      34.702   5.517  31.419  0.00  0.00    -0.296 N 
ATOM      4  H   CYS A   4      34.739   4.898  30.584  0.00  0.00    +0.150 HD
ENDROOT
BRANCH   3   5
ATOM      5  CA  CYS A   4      35.707   5.350  32.465  0.00  0.00    +0.160 C 
BRANCH   5   6
ATOM      6  C   CYS A   4      37.092   5.659  31.914  0.00  0.00    +0.242 C 
ATOM      7  N   ARG A   5      37.757   6.641  32.511  0.00  0.00    -0.298 N 
ATOM      8  H   ARG A   5      37.337   7.116  33.335  0.00  0.00    +0.150 HD
ATOM      9  O   CYS A   4      37.552   5.016  30.970  0.00  0.00    -0.273 OA
BRANCH   7  10
ATOM     10  CA  ARG A   5      39.060   7.061  32.032  0.00  0.00    +0.137 C 
BRANCH  10  11
ATOM     11  C   ARG A   5      40.065   7.056  33.167  0.00  0.00    +0.227 C 
ATOM     12  O   ARG A   5      39.863   7.717  34.186  0.00  0.00    -0.286 OA
ENDBRANCH  10  11
BRANCH  10  13
ATOM     13  CB  ARG A   5      38.993   8.457  31.413  0.00  0.00    +0.031 C 
BRANCH  13  14
ATOM     14  CG  ARG A   5      40.347   9.145  31.369  0.00  0.00    +0.045 C 
BRANCH  14  15
ATOM     15  CD  ARG A   5      40.315  10.409  30.541  0.00  0.00    +0.174 C 
BRANCH  15  16
ATOM     16  NE  ARG A   5      40.046  10.117  29.135  0.00  0.00    -0.265 N 
ATOM     17  HE  ARG A   5      39.078  10.264  28.783  0.00  0.00    +0.259 HD
ATOM     18  CZ  ARG A   5      40.961   9.675  28.277  0.00  0.00    +0.342 C 
ATOM     19  NH2 ARG A   5      42.209   9.468  28.681  0.00  0.00    -0.292 N 
ATOM     20 HH21 ARG A   5      42.473   9.652  29.670  0.00  0.00    +0.255 HD
ATOM     21 HH22 ARG A   5      42.923   9.122  28.008  0.00  0.00    +0.255 HD
ATOM     22  NH1 ARG A   5      40.629   9.437  27.014  0.00  0.00    -0.292 N 
ATOM     23 HH11 ARG A   5      39.652   9.596  26.694  0.00  0.00    +0.255 HD
ATOM     24 HH12 ARG A   5      41.346   9.091  26.344  0.00  0.00    +0.255 HD
ENDBRANCH  15  16
ENDBRANCH  14  15
ENDBRANCH  13  14
ENDBRANCH  10  13
ENDBRANCH   7  10
ENDBRANCH   5   6
BRANCH   5  25
ATOM     25  CB  CYS A   4      35.693   3.927  33.023  0.00  0.00    +0.098 C 
ATOM     26  SG  CYS A   4      34.096   3.404  33.662  0.00  0.00    -0.080 S 
ENDBRANCH   5  25
ENDBRANCH   3   5
BRANCH   1  27
ATOM     27  CA  ASP A   3      32.843   6.574  30.269  0.00  0.00    +0.160 C 
BRANCH  27  29
ATOM     28  C   THR A   2      30.686   5.639  30.878  0.00  0.00    +0.243 C 
ATOM     29  N   ASP A   3      31.447   6.708  30.676  0.00  0.00    -0.296 N 
ATOM     30  H   ASP A   3      31.042   7.657  30.810  0.00  0.00    +0.150 HD
ATOM     31  O   THR A   2      31.037   4.497  30.582  0.00  0.00    -0.273 OA
BRANCH  28  32
ATOM     32  CA  THR A   2      29.306   5.889  31.445  0.00  0.00    +0.176 C 
BRANCH  32  35
ATOM     33  C   ILE A   1      27.307   6.098  30.099  0.00  0.00    +0.238 C 
ATOM     34  O   ILE A   1      27.031   7.203  30.584  0.00  0.00    -0.274 OA
ATOM     35  N   THR A   2      28.334   5.366  30.509  0.00  0.00    -0.295 N 
ATOM     36  H   THR A   2      28.443   4.396  30.150  0.00  0.00    +0.150 HD
BRANCH  33  37
ATOM     37  CA  ILE A   1      26.488   5.500  28.965  0.00  0.00    +0.145 C 
BRANCH  37  38
ATOM     38  N   ILE A   1      25.186   6.159  28.839  0.00  0.00    -0.238 NA
ATOM     39  H   ILE A   1      25.141   7.197  28.875  0.00  0.00    +0.142 HD
ENDBRANCH  37  38
BRANCH  37  40
ATOM     40  CB  ILE A   1      27.326   5.618  27.670  0.00  0.00    +0.025 C 
ATOM     41  CG2 ILE A   1      26.517   5.126  26.465  0.00  0.00    +0.002 C 
BRANCH  40  42
ATOM     42  CG1 ILE A   1      27.817   7.058  27.475  0.00  0.00    +0.002 C 
ATOM     43  CD1 ILE A   1      28.541   7.302  26.173  0.00  0.00    +0.000 C 
ENDBRANCH  40  42
ENDBRANCH  37  40
ENDBRANCH  33  37
ENDBRANCH  32  35
BRANCH  32  44
ATOM     44  CB  THR A   2      29.210   5.189  32.797  0.00  0.00    +0.137 C 
ATOM     45  CG2 THR A   2      30.261   5.743  33.750  0.00  0.00    +0.034 C 
BRANCH  44  46
ATOM     46  OG1 THR A   2      27.903   5.384  33.352  0.00  0.00    -0.382 OA
ATOM     47  HG1 THR A   2      27.225   5.006  32.738  0.00  0.00    +0.210 HD
ENDBRANCH  44  46
ENDBRANCH  32  44
ENDBRANCH  28  32
ENDBRANCH  27  29
BRANCH  27  48
ATOM     48  CB  ASP A   3      33.287   7.785  29.451  0.00  0.00    +0.143 C 
BRANCH  48  49
ATOM     49  CG  ASP A   3      32.584   7.869  28.116  0.00  0.00    +0.367 C 
ATOM     50  OD2 ASP A   3      32.040   8.946  27.782  0.00  0.00    -0.246 OA
ATOM     51  OD1 ASP A   3      32.568   6.852  27.394  0.00  0.00    -0.246 OA
ENDBRANCH  48  49
ENDBRANCH  27  48
ENDBRANCH   1  27
TORSDOF 21
REMARK  Name = ../refined-set-2016/4g8y/4g8y_pocket.pdb
REMARK  135 active torsions:
REMARK  status: ('A' for Active; 'I' for Inactive)
REMARK    1  A    between atoms: _1  and  _3
REMARK    2  A    between atoms: _3  and  _4
REMARK    3  A    between atoms: _7  and  _9
REMARK    4  A    between atoms: _9  and  _10
REMARK    5  A    between atoms: _9  and  _12
REMARK    6  A    between atoms: _12  and  _13
REMARK    7  A    between atoms: _13  and  _14
REMARK    8  A    between atoms: _14  and  _15
REMARK    9  A    between atoms: _15  and  _16
REMARK   10  A    between atoms: _20  and  _22
REMARK   11  A    between atoms: _22  and  _23
REMARK   12  A    between atoms: _22  and  _25
REMARK   13  A    between atoms: _25  and  _26
REMARK   14  A    between atoms: _32  and  _34
REMARK   15  A    between atoms: _34  and  _35
REMARK   16  A    between atoms: _34  and  _37
REMARK   17  A    between atoms: _37  and  _38
REMARK   18  A    between atoms: _38  and  _39
REMARK   19  A    between atoms: _39  and  _40
REMARK   20  A    between atoms: _49  and  _51
REMARK   21  A    between atoms: _51  and  _52
REMARK   22  A    between atoms: _51  and  _54
REMARK   23  A    between atoms: _54  and  _55
REMARK   24  A    between atoms: _55  and  _56
REMARK   25  A    between atoms: _61  and  _63
REMARK   26  A    between atoms: _63  and  _64
REMARK   27  A    between atoms: _63  and  _66
REMARK   28  A    between atoms: _66  and  _67
REMARK   29  A    between atoms: _72  and  _74
REMARK   30  A    between atoms: _74  and  _75
REMARK   31  A    between atoms: _74  and  _77
REMARK   32  A    between atoms: _77  and  _78
REMARK   33  A    between atoms: _78  and  _79
REMARK   34  A    between atoms: _81  and  _83
REMARK   35  A    between atoms: _83  and  _84
REMARK   36  A    between atoms: _83  and  _86
REMARK   37  A    between atoms: _86  and  _87
REMARK   38  A    between atoms: _90  and  _92
REMARK   39  A    between atoms: _92  and  _93
REMARK   40  A    between atoms: _92  and  _95
REMARK   41  A    between atoms: _95  and  _96
REMARK   42  A    between atoms: _96  and  _97
REMARK   43  A    between atoms: _97  and  _98
REMARK   44  A    between atoms: _107  and  _109
REMARK   45  A    between atoms: _109  and  _110
REMARK   46  A    between atoms: _109  and  _112
REMARK   47  A    between atoms: _112  and  _113
REMARK   48  A    between atoms: _113  and  _114
REMARK   49  A    between atoms: _114  and  _115
REMARK   50  A    between atoms: _115  and  _116
REMARK   51  A    between atoms: _121  and  _122
REMARK   52  A    between atoms: _127  and  _129
REMARK   53  A    between atoms: _129  and  _130
REMARK   54  A    between atoms: _129  and  _132
REMARK   55  A    between atoms: _135  and  _137
REMARK   56  A    between atoms: _137  and  _138
REMARK   57  A    between atoms: _137  and  _140
REMARK   58  A    between atoms: _140  and  _141
REMARK   59  A    between atoms: _146  and  _148
REMARK   60  A    between atoms: _148  and  _149
REMARK   61  A    between atoms: _148  and  _151
REMARK   62  A    between atoms: _151  and  _152
REMARK   63  A    between atoms: _155  and  _157
REMARK   64  A    between atoms: _157  and  _158
REMARK   65  A    between atoms: _157  and  _160
REMARK   66  A    between atoms: _160  and  _161
REMARK   67  A    between atoms: _167  and  _169
REMARK   68  A    between atoms: _169  and  _170
REMARK   69  A    between atoms: _169  and  _172
REMARK   70  A    between atoms: _172  and  _173
REMARK   71  A    between atoms: _173  and  _174
REMARK   72  A    between atoms: _174  and  _175
REMARK   73  A    between atoms: _175  and  _176
REMARK   74  A    between atoms: _180  and  _182
REMARK   75  A    between atoms: _182  and  _183
REMARK   76  A    between atoms: _182  and  _185
REMARK   77  A    between atoms: _185  and  _186
REMARK   78  A    between atoms: _191  and  _193
REMARK   79  A    between atoms: _193  and  _194
REMARK   80  A    between atoms: _193  and  _196
REMARK   81  A    between atoms: _196  and  _197
REMARK   82  A    between atoms: _200  and  _202
REMARK   83  A    between atoms: _202  and  _203
REMARK   84  A    between atoms: _202  and  _205
REMARK   85  A    between atoms: _205  and  _206
REMARK   86  A    between atoms: _209  and  _211
REMARK   87  A    between atoms: _211  and  _212
REMARK   88  A    between atoms: _211  and  _214
REMARK   89  A    between atoms: _214  and  _215
REMARK   90  A    between atoms: _218  and  _220
REMARK   91  A    between atoms: _220  and  _221
REMARK   92  A    between atoms: _220  and  _223
REMARK   93  A    between atoms: _225  and  _227
REMARK   94  A    between atoms: _227  and  _228
REMARK   95  A    between atoms: _227  and  _230
REMARK   96  A    between atoms: _230  and  _231
REMARK   97  A    between atoms: _231  and  _232
REMARK   98  A    between atoms: _232  and  _233
REMARK   99  A    between atoms: _242  and  _244
REMARK  100  A    between atoms: _244  and  _245
REMARK  101  A    between atoms: _244  and  _247
REMARK  102  A    between atoms: _247  and  _248
REMARK  103  A    between atoms: _248  and  _249
REMARK  104  A    between atoms: _249  and  _250
REMARK  105  A    between atoms: _250  and  _251
REMARK  106  A    between atoms: _255  and  _257
REMARK  107  A    between atoms: _257  and  _258
REMARK  108  A    between atoms: _257  and  _260
REMARK  109  A    between atoms: _260  and  _261
REMARK  110  A    between atoms: _264  and  _266
REMARK  111  A    between atoms: _266  and  _267
REMARK  112  A    between atoms: _270  and  _272
REMARK  113  A    between atoms: _272  and  _273
REMARK  114  A    between atoms: _272  and  _275
REMARK  115  A    between atoms: _278  and  _280
REMARK  116  A    between atoms: _280  and  _281
REMARK  117  A    between atoms: _280  and  _283
REMARK  118  A    between atoms: _283  and  _284
REMARK  119  A    between atoms: _289  and  _291
REMARK  120  A    between atoms: _291  and  _292
REMARK  121  A    between atoms: _291  and  _294
REMARK  122  A    between atoms: _294  and  _295
REMARK  123  A    between atoms: _301  and  _303
REMARK  124  A    between atoms: _303  and  _304
REMARK  125  A    between atoms: _303  and  _306
REMARK  126  A    between atoms: _306  and  _307
REMARK  127  A    between atoms: _310  and  _312
REMARK  128  A    between atoms: _312  and  _313
REMARK  129  A    between atoms: _316  and  _318
REMARK  130  A    between atoms: _318  and  _319
REMARK  131  A    between atoms: _318  and  _321
REMARK  132  A    between atoms: _321  and  _322
REMARK  133  A    between atoms: _324  and  _326
REMARK  134  A    between atoms: _326  and  _327
REMARK  135  A    between atoms: _326  and  _329
REMARK                            x       y       z     vdW  Elec       q    Type
REMARK                         _______ _______ _______ _____ _____    ______ ____
ROOT
ATOM      1  CG  LYS A   1      27.191  11.436  24.198  0.00  0.00    -0.000 C 
ENDROOT
BRANCH   1   2
ATOM      2  CB  LYS A   1      26.687  10.121  23.598  0.00  0.00    +0.025 C 
BRANCH   2   3
ATOM      3  CA  LYS A   1      25.168  10.013  23.414  0.00  0.00    +0.133 C 
BRANCH   3   4
ATOM      4  N   LYS A   1      24.523   9.809  24.696  0.00  0.00    -0.239 NA
ATOM      5  H   LYS A   1      24.369   8.840  25.041  0.00  0.00    +0.142 HD
ENDBRANCH   3   4
BRANCH   3   6
ATOM      6  C   LYS A   1      24.872   8.831  22.517  0.00  0.00    +0.224 C 
ATOM      7  O   LYS A   1      24.473   7.765  22.990  0.00  0.00    -0.287 OA
ENDBRANCH   3   6
ENDBRANCH   2   3
ENDBRANCH   1   2
BRANCH   1   8
ATOM      8  CD  LYS A   1      28.696  11.391  24.394  0.00  0.00    -0.024 C 
BRANCH   8   9
ATOM      9  CE  LYS A   1      29.237  12.738  24.856  0.00  0.00    -0.086 C 
BRANCH   9  10
ATOM     10  NZ  LYS A   1      30.716  12.693  24.979  0.00  0.00    +0.380 N 
ATOM     11  HZ1 LYS A   1      30.983  11.966  25.673  0.00  0.00    -0.089 HD
ATOM     12  HZ2 LYS A   1      31.065  13.620  25.295  0.00  0.00    -0.089 HD
ATOM     13  HZ3 LYS A   1      31.133  12.461  24.055  0.00  0.00    -0.089 HD
ENDBRANCH   9  10
ENDBRANCH   8   9
ENDBRANCH   1   8
TORSDOF 7
REMARK  Name = ../refined-set-2016/4g8y/4g8y_pocket.pdb
REMARK  135 active torsions:
REMARK  status: ('A' for Active; 'I' for Inactive)
REMARK    1  A    between atoms: _1  and  _3
REMARK    2  A    between atoms: _3  and  _4
REMARK    3  A    between atoms: _7  and  _9
REMARK    4  A    between atoms: _9  and  _10
REMARK    5  A    between atoms: _9  and  _12
REMARK    6  A    between atoms: _12  and  _13
REMARK    7  A    between atoms: _13  and  _14
REMARK    8  A    between atoms: _14  and  _15
REMARK    9  A    between atoms: _15  and  _16
REMARK   10  A    between atoms: _20  and  _22
REMARK   11  A    between atoms: _22  and  _23
REMARK   12  A    between atoms: _22  and  _25
REMARK   13  A    between atoms: _25  and  _26
REMARK   14  A    between atoms: _32  and  _34
REMARK   15  A    between atoms: _34  and  _35
REMARK   16  A    between atoms: _34  and  _37
REMARK   17  A    between atoms: _37  and  _38
REMARK   18  A    between atoms: _38  and  _39
REMARK   19  A    between atoms: _39  and  _40
REMARK   20  A    between atoms: _49  and  _51
REMARK   21  A    between atoms: _51  and  _52
REMARK   22  A    between atoms: _51  and  _54
REMARK   23  A    between atoms: _54  and  _55
REMARK   24  A    between atoms: _55  and  _56
REMARK   25  A    between atoms: _61  and  _63
REMARK   26  A    between atoms: _63  and  _64
REMARK   27  A    between atoms: _63  and  _66
REMARK   28  A    between atoms: _66  and  _67
REMARK   29  A    between atoms: _72  and  _74
REMARK   30  A    between atoms: _74  and  _75
REMARK   31  A    between atoms: _74  and  _77
REMARK   32  A    between atoms: _77  and  _78
REMARK   33  A    between atoms: _78  and  _79
REMARK   34  A    between atoms: _81  and  _83
REMARK   35  A    between atoms: _83  and  _84
REMARK   36  A    between atoms: _83  and  _86
REMARK   37  A    between atoms: _86  and  _87
REMARK   38  A    between atoms: _90  and  _92
REMARK   39  A    between atoms: _92  and  _93
REMARK   40  A    between atoms: _92  and  _95
REMARK   41  A    between atoms: _95  and  _96
REMARK   42  A    between atoms: _96  and  _97
REMARK   43  A    between atoms: _97  and  _98
REMARK   44  A    between atoms: _107  and  _109
REMARK   45  A    between atoms: _109  and  _110
REMARK   46  A    between atoms: _109  and  _112
REMARK   47  A    between atoms: _112  and  _113
REMARK   48  A    between atoms: _113  and  _114
REMARK   49  A    between atoms: _114  and  _115
REMARK   50  A    between atoms: _115  and  _116
REMARK   51  A    between atoms: _121  and  _122
REMARK   52  A    between atoms: _127  and  _129
REMARK   53  A    between atoms: _129  and  _130
REMARK   54  A    between atoms: _129  and  _132
REMARK   55  A    between atoms: _135  and  _137
REMARK   56  A    between atoms: _137  and  _138
REMARK   57  A    between atoms: _137  and  _140
REMARK   58  A    between atoms: _140  and  _141
REMARK   59  A    between atoms: _146  and  _148
REMARK   60  A    between atoms: _148  and  _149
REMARK   61  A    between atoms: _148  and  _151
REMARK   62  A    between atoms: _151  and  _152
REMARK   63  A    between atoms: _155  and  _157
REMARK   64  A    between atoms: _157  and  _158
REMARK   65  A    between atoms: _157  and  _160
REMARK   66  A    between atoms: _160  and  _161
REMARK   67  A    between atoms: _167  and  _169
REMARK   68  A    between atoms: _169  and  _170
REMARK   69  A    between atoms: _169  and  _172
REMARK   70  A    between atoms: _172  and  _173
REMARK   71  A    between atoms: _173  and  _174
REMARK   72  A    between atoms: _174  and  _175
REMARK   73  A    between atoms: _175  and  _176
REMARK   74  A    between atoms: _180  and  _182
REMARK   75  A    between atoms: _182  and  _183
REMARK   76  A    between atoms: _182  and  _185
REMARK   77  A    between atoms: _185  and  _186
REMARK   78  A    between atoms: _191  and  _193
REMARK   79  A    between atoms: _193  and  _194
REMARK   80  A    between atoms: _193  and  _196
REMARK   81  A    between atoms: _196  and  _197
REMARK   82  A    between atoms: _200  and  _202
REMARK   83  A    between atoms: _202  and  _203
REMARK   84  A    between atoms: _202  and  _205
REMARK   85  A    between atoms: _205  and  _206
REMARK   86  A    between atoms: _209  and  _211
REMARK   87  A    between atoms: _211  and  _212
REMARK   88  A    between atoms: _211  and  _214
REMARK   89  A    between atoms: _214  and  _215
REMARK   90  A    between atoms: _218  and  _220
REMARK   91  A    between atoms: _220  and  _221
REMARK   92  A    between atoms: _220  and  _223
REMARK   93  A    between atoms: _225  and  _227
REMARK   94  A    between atoms: _227  and  _228
REMARK   95  A    between atoms: _227  and  _230
REMARK   96  A    between atoms: _230  and  _231
REMARK   97  A    between atoms: _231  and  _232
REMARK   98  A    between atoms: _232  and  _233
REMARK   99  A    between atoms: _242  and  _244
REMARK  100  A    between atoms: _244  and  _245
REMARK  101  A    between atoms: _244  and  _247
REMARK  102  A    between atoms: _247  and  _248
REMARK  103  A    between atoms: _248  and  _249
REMARK  104  A    between atoms: _249  and  _250
REMARK  105  A    between atoms: _250  and  _251
REMARK  106  A    between atoms: _255  and  _257
REMARK  107  A    between atoms: _257  and  _258
REMARK  108  A    between atoms: _257  and  _260
REMARK  109  A    between atoms: _260  and  _261
REMARK  110  A    between atoms: _264  and  _266
REMARK  111  A    between atoms: _266  and  _267
REMARK  112  A    between atoms: _270  and  _272
REMARK  113  A    between atoms: _272  and  _273
REMARK  114  A    between atoms: _272  and  _275
REMARK  115  A    between atoms: _278  and  _280
REMARK  116  A    between atoms: _280  and  _281
REMARK  117  A    between atoms: _280  and  _283
REMARK  118  A    between atoms: _283  and  _284
REMARK  119  A    between atoms: _289  and  _291
REMARK  120  A    between atoms: _291  and  _292
REMARK  121  A    between atoms: _291  and  _294
REMARK  122  A    between atoms: _294  and  _295
REMARK  123  A    between atoms: _301  and  _303
REMARK  124  A    between atoms: _303  and  _304
REMARK  125  A    between atoms: _303  and  _306
REMARK  126  A    between atoms: _306  and  _307
REMARK  127  A    between atoms: _310  and  _312
REMARK  128  A    between atoms: _312  and  _313
REMARK  129  A    between atoms: _316  and  _318
REMARK  130  A    between atoms: _318  and  _319
REMARK  131  A    between atoms: _318  and  _321
REMARK  132  A    between atoms: _321  and  _322
REMARK  133  A    between atoms: _324  and  _326
REMARK  134  A    between atoms: _326  and  _327
REMARK  135  A    between atoms: _326  and  _329
REMARK                            x       y       z     vdW  Elec       q    Type
REMARK                         _______ _______ _______ _____ _____    ______ ____
ROOT
ATOM      1  CA  ILE A   1      29.190   3.402  17.630  0.00  0.00    +0.133 C 
ENDROOT
BRANCH   1   2
ATOM      2  N   ILE A   1      28.773   4.076  18.857  0.00  0.00    -0.239 NA
ATOM      3  H   ILE A   1      29.486   4.325  19.572  0.00  0.00    +0.142 HD
ENDBRANCH   1   2
BRANCH   1   4
ATOM      4  C   ILE A   1      29.866   2.076  18.006  0.00  0.00    +0.224 C 
ATOM      5  O   ILE A   1      30.852   2.062  18.740  0.00  0.00    -0.287 OA
ENDBRANCH   1   4
BRANCH   1   6
ATOM      6  CB  ILE A   1      30.150   4.273  16.803  0.00  0.00    +0.023 C 
ATOM      7  CG2 ILE A   1      30.660   3.515  15.581  0.00  0.00    +0.002 C 
BRANCH   6   8
ATOM      8  CG1 ILE A   1      29.458   5.567  16.376  0.00  0.00    +0.002 C 
ATOM      9  CD1 ILE A   1      30.422   6.646  15.871  0.00  0.00    +0.000 C 
ENDBRANCH   6   8
ENDBRANCH   1   6
TORSDOF 4
REMARK  Name = ../refined-set-2016/4g8y/4g8y_pocket.pdb
REMARK  135 active torsions:
REMARK  status: ('A' for Active; 'I' for Inactive)
REMARK    1  A    between atoms: _1  and  _3
REMARK    2  A    between atoms: _3  and  _4
REMARK    3  A    between atoms: _7  and  _9
REMARK    4  A    between atoms: _9  and  _10
REMARK    5  A    between atoms: _9  and  _12
REMARK    6  A    between atoms: _12  and  _13
REMARK    7  A    between atoms: _13  and  _14
REMARK    8  A    between atoms: _14  and  _15
REMARK    9  A    between atoms: _15  and  _16
REMARK   10  A    between atoms: _20  and  _22
REMARK   11  A    between atoms: _22  and  _23
REMARK   12  A    between atoms: _22  and  _25
REMARK   13  A    between atoms: _25  and  _26
REMARK   14  A    between atoms: _32  and  _34
REMARK   15  A    between atoms: _34  and  _35
REMARK   16  A    between atoms: _34  and  _37
REMARK   17  A    between atoms: _37  and  _38
REMARK   18  A    between atoms: _38  and  _39
REMARK   19  A    between atoms: _39  and  _40
REMARK   20  A    between atoms: _49  and  _51
REMARK   21  A    between atoms: _51  and  _52
REMARK   22  A    between atoms: _51  and  _54
REMARK   23  A    between atoms: _54  and  _55
REMARK   24  A    between atoms: _55  and  _56
REMARK   25  A    between atoms: _61  and  _63
REMARK   26  A    between atoms: _63  and  _64
REMARK   27  A    between atoms: _63  and  _66
REMARK   28  A    between atoms: _66  and  _67
REMARK   29  A    between atoms: _72  and  _74
REMARK   30  A    between atoms: _74  and  _75
REMARK   31  A    between atoms: _74  and  _77
REMARK   32  A    between atoms: _77  and  _78
REMARK   33  A    between atoms: _78  and  _79
REMARK   34  A    between atoms: _81  and  _83
REMARK   35  A    between atoms: _83  and  _84
REMARK   36  A    between atoms: _83  and  _86
REMARK   37  A    between atoms: _86  and  _87
REMARK   38  A    between atoms: _90  and  _92
REMARK   39  A    between atoms: _92  and  _93
REMARK   40  A    between atoms: _92  and  _95
REMARK   41  A    between atoms: _95  and  _96
REMARK   42  A    between atoms: _96  and  _97
REMARK   43  A    between atoms: _97  and  _98
REMARK   44  A    between atoms: _107  and  _109
REMARK   45  A    between atoms: _109  and  _110
REMARK   46  A    between atoms: _109  and  _112
REMARK   47  A    between atoms: _112  and  _113
REMARK   48  A    between atoms: _113  and  _114
REMARK   49  A    between atoms: _114  and  _115
REMARK   50  A    between atoms: _115  and  _116
REMARK   51  A    between atoms: _121  and  _122
REMARK   52  A    between atoms: _127  and  _129
REMARK   53  A    between atoms: _129  and  _130
REMARK   54  A    between atoms: _129  and  _132
REMARK   55  A    between atoms: _135  and  _137
REMARK   56  A    between atoms: _137  and  _138
REMARK   57  A    between atoms: _137  and  _140
REMARK   58  A    between atoms: _140  and  _141
REMARK   59  A    between atoms: _146  and  _148
REMARK   60  A    between atoms: _148  and  _149
REMARK   61  A    between atoms: _148  and  _151
REMARK   62  A    between atoms: _151  and  _152
REMARK   63  A    between atoms: _155  and  _157
REMARK   64  A    between atoms: _157  and  _158
REMARK   65  A    between atoms: _157  and  _160
REMARK   66  A    between atoms: _160  and  _161
REMARK   67  A    between atoms: _167  and  _169
REMARK   68  A    between atoms: _169  and  _170
REMARK   69  A    between atoms: _169  and  _172
REMARK   70  A    between atoms: _172  and  _173
REMARK   71  A    between atoms: _173  and  _174
REMARK   72  A    between atoms: _174  and  _175
REMARK   73  A    between atoms: _175  and  _176
REMARK   74  A    between atoms: _180  and  _182
REMARK   75  A    between atoms: _182  and  _183
REMARK   76  A    between atoms: _182  and  _185
REMARK   77  A    between atoms: _185  and  _186
REMARK   78  A    between atoms: _191  and  _193
REMARK   79  A    between atoms: _193  and  _194
REMARK   80  A    between atoms: _193  and  _196
REMARK   81  A    between atoms: _196  and  _197
REMARK   82  A    between atoms: _200  and  _202
REMARK   83  A    between atoms: _202  and  _203
REMARK   84  A    between atoms: _202  and  _205
REMARK   85  A    between atoms: _205  and  _206
REMARK   86  A    between atoms: _209  and  _211
REMARK   87  A    between atoms: _211  and  _212
REMARK   88  A    between atoms: _211  and  _214
REMARK   89  A    between atoms: _214  and  _215
REMARK   90  A    between atoms: _218  and  _220
REMARK   91  A    between atoms: _220  and  _221
REMARK   92  A    between atoms: _220  and  _223
REMARK   93  A    between atoms: _225  and  _227
REMARK   94  A    between atoms: _227  and  _228
REMARK   95  A    between atoms: _227  and  _230
REMARK   96  A    between atoms: _230  and  _231
REMARK   97  A    between atoms: _231  and  _232
REMARK   98  A    between atoms: _232  and  _233
REMARK   99  A    between atoms: _242  and  _244
REMARK  100  A    between atoms: _244  and  _245
REMARK  101  A    between atoms: _244  and  _247
REMARK  102  A    between atoms: _247  and  _248
REMARK  103  A    between atoms: _248  and  _249
REMARK  104  A    between atoms: _249  and  _250
REMARK  105  A    between atoms: _250  and  _251
REMARK  106  A    between atoms: _255  and  _257
REMARK  107  A    between atoms: _257  and  _258
REMARK  108  A    between atoms: _257  and  _260
REMARK  109  A    between atoms: _260  and  _261
REMARK  110  A    between atoms: _264  and  _266
REMARK  111  A    between atoms: _266  and  _267
REMARK  112  A    between atoms: _270  and  _272
REMARK  113  A    between atoms: _272  and  _273
REMARK  114  A    between atoms: _272  and  _275
REMARK  115  A    between atoms: _278  and  _280
REMARK  116  A    between atoms: _280  and  _281
REMARK  117  A    between atoms: _280  and  _283
REMARK  118  A    between atoms: _283  and  _284
REMARK  119  A    between atoms: _289  and  _291
REMARK  120  A    between atoms: _291  and  _292
REMARK  121  A    between atoms: _291  and  _294
REMARK  122  A    between atoms: _294  and  _295
REMARK  123  A    between atoms: _301  and  _303
REMARK  124  A    between atoms: _303  and  _304
REMARK  125  A    between atoms: _303  and  _306
REMARK  126  A    between atoms: _306  and  _307
REMARK  127  A    between atoms: _310  and  _312
REMARK  128  A    between atoms: _312  and  _313
REMARK  129  A    between atoms: _316  and  _318
REMARK  130  A    between atoms: _318  and  _319
REMARK  131  A    between atoms: _318  and  _321
REMARK  132  A    between atoms: _321  and  _322
REMARK  133  A    between atoms: _324  and  _326
REMARK  134  A    between atoms: _326  and  _327
REMARK  135  A    between atoms: _326  and  _329
REMARK                            x       y       z     vdW  Elec       q    Type
REMARK                         _______ _______ _______ _____ _____    ______ ____
ROOT
ATOM      1  CA  ALA A   1      31.649  -2.820  15.443  0.00  0.00    +0.133 C 
ATOM      2  CB  ALA A   1      33.150  -3.104  15.435  0.00  0.00    +0.027 C 
ENDROOT
BRANCH   1   3
ATOM      3  N   ALA A   1      31.294  -1.954  16.564  0.00  0.00    -0.239 NA
ATOM      4  H   ALA A   1      31.819  -2.049  17.457  0.00  0.00    +0.142 HD
ENDBRANCH   1   3
BRANCH   1   5
ATOM      5  C   ALA A   1      30.877  -4.110  15.636  0.00  0.00    +0.224 C 
ATOM      6  O   ALA A   1      30.821  -4.635  16.747  0.00  0.00    -0.287 OA
ENDBRANCH   1   5
TORSDOF 2
REMARK  Name = ../refined-set-2016/4g8y/4g8y_pocket.pdb
REMARK  135 active torsions:
REMARK  status: ('A' for Active; 'I' for Inactive)
REMARK    1  A    between atoms: _1  and  _3
REMARK    2  A    between atoms: _3  and  _4
REMARK    3  A    between atoms: _7  and  _9
REMARK    4  A    between atoms: _9  and  _10
REMARK    5  A    between atoms: _9  and  _12
REMARK    6  A    between atoms: _12  and  _13
REMARK    7  A    between atoms: _13  and  _14
REMARK    8  A    between atoms: _14  and  _15
REMARK    9  A    between atoms: _15  and  _16
REMARK   10  A    between atoms: _20  and  _22
REMARK   11  A    between atoms: _22  and  _23
REMARK   12  A    between atoms: _22  and  _25
REMARK   13  A    between atoms: _25  and  _26
REMARK   14  A    between atoms: _32  and  _34
REMARK   15  A    between atoms: _34  and  _35
REMARK   16  A    between atoms: _34  and  _37
REMARK   17  A    between atoms: _37  and  _38
REMARK   18  A    between atoms: _38  and  _39
REMARK   19  A    between atoms: _39  and  _40
REMARK   20  A    between atoms: _49  and  _51
REMARK   21  A    between atoms: _51  and  _52
REMARK   22  A    between atoms: _51  and  _54
REMARK   23  A    between atoms: _54  and  _55
REMARK   24  A    between atoms: _55  and  _56
REMARK   25  A    between atoms: _61  and  _63
REMARK   26  A    between atoms: _63  and  _64
REMARK   27  A    between atoms: _63  and  _66
REMARK   28  A    between atoms: _66  and  _67
REMARK   29  A    between atoms: _72  and  _74
REMARK   30  A    between atoms: _74  and  _75
REMARK   31  A    between atoms: _74  and  _77
REMARK   32  A    between atoms: _77  and  _78
REMARK   33  A    between atoms: _78  and  _79
REMARK   34  A    between atoms: _81  and  _83
REMARK   35  A    between atoms: _83  and  _84
REMARK   36  A    between atoms: _83  and  _86
REMARK   37  A    between atoms: _86  and  _87
REMARK   38  A    between atoms: _90  and  _92
REMARK   39  A    between atoms: _92  and  _93
REMARK   40  A    between atoms: _92  and  _95
REMARK   41  A    between atoms: _95  and  _96
REMARK   42  A    between atoms: _96  and  _97
REMARK   43  A    between atoms: _97  and  _98
REMARK   44  A    between atoms: _107  and  _109
REMARK   45  A    between atoms: _109  and  _110
REMARK   46  A    between atoms: _109  and  _112
REMARK   47  A    between atoms: _112  and  _113
REMARK   48  A    between atoms: _113  and  _114
REMARK   49  A    between atoms: _114  and  _115
REMARK   50  A    between atoms: _115  and  _116
REMARK   51  A    between atoms: _121  and  _122
REMARK   52  A    between atoms: _127  and  _129
REMARK   53  A    between atoms: _129  and  _130
REMARK   54  A    between atoms: _129  and  _132
REMARK   55  A    between atoms: _135  and  _137
REMARK   56  A    between atoms: _137  and  _138
REMARK   57  A    between atoms: _137  and  _140
REMARK   58  A    between atoms: _140  and  _141
REMARK   59  A    between atoms: _146  and  _148
REMARK   60  A    between atoms: _148  and  _149
REMARK   61  A    between atoms: _148  and  _151
REMARK   62  A    between atoms: _151  and  _152
REMARK   63  A    between atoms: _155  and  _157
REMARK   64  A    between atoms: _157  and  _158
REMARK   65  A    between atoms: _157  and  _160
REMARK   66  A    between atoms: _160  and  _161
REMARK   67  A    between atoms: _167  and  _169
REMARK   68  A    between atoms: _169  and  _170
REMARK   69  A    between atoms: _169  and  _172
REMARK   70  A    between atoms: _172  and  _173
REMARK   71  A    between atoms: _173  and  _174
REMARK   72  A    between atoms: _174  and  _175
REMARK   73  A    between atoms: _175  and  _176
REMARK   74  A    between atoms: _180  and  _182
REMARK   75  A    between atoms: _182  and  _183
REMARK   76  A    between atoms: _182  and  _185
REMARK   77  A    between atoms: _185  and  _186
REMARK   78  A    between atoms: _191  and  _193
REMARK   79  A    between atoms: _193  and  _194
REMARK   80  A    between atoms: _193  and  _196
REMARK   81  A    between atoms: _196  and  _197
REMARK   82  A    between atoms: _200  and  _202
REMARK   83  A    between atoms: _202  and  _203
REMARK   84  A    between atoms: _202  and  _205
REMARK   85  A    between atoms: _205  and  _206
REMARK   86  A    between atoms: _209  and  _211
REMARK   87  A    between atoms: _211  and  _212
REMARK   88  A    between atoms: _211  and  _214
REMARK   89  A    between atoms: _214  and  _215
REMARK   90  A    between atoms: _218  and  _220
REMARK   91  A    between atoms: _220  and  _221
REMARK   92  A    between atoms: _220  and  _223
REMARK   93  A    between atoms: _225  and  _227
REMARK   94  A    between atoms: _227  and  _228
REMARK   95  A    between atoms: _227  and  _230
REMARK   96  A    between atoms: _230  and  _231
REMARK   97  A    between atoms: _231  and  _232
REMARK   98  A    between atoms: _232  and  _233
REMARK   99  A    between atoms: _242  and  _244
REMARK  100  A    between atoms: _244  and  _245
REMARK  101  A    between atoms: _244  and  _247
REMARK  102  A    between atoms: _247  and  _248
REMARK  103  A    between atoms: _248  and  _249
REMARK  104  A    between atoms: _249  and  _250
REMARK  105  A    between atoms: _250  and  _251
REMARK  106  A    between atoms: _255  and  _257
REMARK  107  A    between atoms: _257  and  _258
REMARK  108  A    between atoms: _257  and  _260
REMARK  109  A    between atoms: _260  and  _261
REMARK  110  A    between atoms: _264  and  _266
REMARK  111  A    between atoms: _266  and  _267
REMARK  112  A    between atoms: _270  and  _272
REMARK  113  A    between atoms: _272  and  _273
REMARK  114  A    between atoms: _272  and  _275
REMARK  115  A    between atoms: _278  and  _280
REMARK  116  A    between atoms: _280  and  _281
REMARK  117  A    between atoms: _280  and  _283
REMARK  118  A    between atoms: _283  and  _284
REMARK  119  A    between atoms: _289  and  _291
REMARK  120  A    between atoms: _291  and  _292
REMARK  121  A    between atoms: _291  and  _294
REMARK  122  A    between atoms: _294  and  _295
REMARK  123  A    between atoms: _301  and  _303
REMARK  124  A    between atoms: _303  and  _304
REMARK  125  A    between atoms: _303  and  _306
REMARK  126  A    between atoms: _306  and  _307
REMARK  127  A    between atoms: _310  and  _312
REMARK  128  A    between atoms: _312  and  _313
REMARK  129  A    between atoms: _316  and  _318
REMARK  130  A    between atoms: _318  and  _319
REMARK  131  A    between atoms: _318  and  _321
REMARK  132  A    between atoms: _321  and  _322
REMARK  133  A    between atoms: _324  and  _326
REMARK  134  A    between atoms: _326  and  _327
REMARK  135  A    between atoms: _326  and  _329
REMARK                            x       y       z     vdW  Elec       q    Type
REMARK                         _______ _______ _______ _____ _____    ______ ____
ROOT
ATOM      1  C   PHE A   3      33.866   0.589  20.620  0.00  0.00    +0.241 C 
ATOM      2  O   PHE A   3      35.007   0.710  21.048  0.00  0.00    -0.273 OA
ATOM      3  N   ASP A   4      33.417   1.295  19.587  0.00  0.00    -0.297 N 
ATOM      4  H   ASP A   4      32.407   1.264  19.340  0.00  0.00    +0.150 HD
ENDROOT
BRANCH   3   5
ATOM      5  CA  ASP A   4      34.331   2.112  18.798  0.00  0.00    +0.160 C 
BRANCH   5   6
ATOM      6  C   ASP A   4      34.393   3.552  19.304  0.00  0.00    +0.241 C 
ATOM      7  N   ALA A   5      33.231   4.121  19.618  0.00  0.00    -0.297 N 
ATOM      8  H   ALA A   5      32.360   3.553  19.588  0.00  0.00    +0.150 HD
ATOM      9  O   ASP A   4      35.479   4.122  19.429  0.00  0.00    -0.273 OA
BRANCH   7  10
ATOM     10  CA  ALA A   5      33.155   5.529  20.004  0.00  0.00    +0.149 C 
ATOM     11  CB  ALA A   5      33.562   6.408  18.829  0.00  0.00    +0.031 C 
BRANCH  10  12
ATOM     12  C   ALA A   5      31.761   5.928  20.472  0.00  0.00    +0.241 C 
ATOM     13  N   SER A   6      31.665   7.104  21.085  0.00  0.00    -0.295 N 
ATOM     14  H   SER A   6      32.529   7.596  21.389  0.00  0.00    +0.150 HD
ATOM     15  O   ALA A   5      30.790   5.206  20.281  0.00  0.00    -0.273 OA
BRANCH  13  16
ATOM     16  CA  SER A   6      30.370   7.709  21.335  0.00  0.00    +0.178 C 
BRANCH  16  17
ATOM     17  C   SER A   6      30.407   9.109  20.748  0.00  0.00    +0.243 C 
ATOM     18  O   SER A   6      31.435   9.776  20.807  0.00  0.00    -0.273 OA
ATOM     19  N   VAL A   7      29.298   9.543  20.163  0.00  0.00    -0.295 N 
ATOM     20  H   VAL A   7      28.455   8.934  20.146  0.00  0.00    +0.150 HD
BRANCH  19  21
ATOM     21  CA  VAL A   7      29.245  10.860  19.545  0.00  0.00    +0.176 C 
BRANCH  21  22
ATOM     22  CB  VAL A   7      29.250  10.790  18.005  0.00  0.00    +0.029 C 
ATOM     23  CG2 VAL A   7      30.500  10.075  17.492  0.00  0.00    +0.002 C 
ATOM     24  CG1 VAL A   7      27.989  10.122  17.491  0.00  0.00    +0.002 C 
ENDBRANCH  21  22
BRANCH  21  25
ATOM     25  C   VAL A   7      28.038  11.672  20.011  0.00  0.00    +0.382 C 
ATOM     26  OXT VAL A   7      27.044  11.156  20.529  0.00  0.00    -0.244 OA
ATOM     27  O   VAL A   7      28.035  12.888  19.853  0.00  0.00    -0.244 OA
ENDBRANCH  21  25
ENDBRANCH  19  21
ENDBRANCH  16  17
BRANCH  16  28
ATOM     28  CB  SER A   6      30.075   7.773  22.830  0.00  0.00    +0.166 C 
BRANCH  28  29
ATOM     29  OG  SER A   6      31.002   8.618  23.475  0.00  0.00    -0.380 OA
ATOM     30  H   SER A   6      31.917   8.266  23.340  0.00  0.00    +0.211 HD
ENDBRANCH  28  29
ENDBRANCH  16  28
ENDBRANCH  13  16
ENDBRANCH  10  12
ENDBRANCH   7  10
ENDBRANCH   5   6
BRANCH   5  31
ATOM     31  CB  ASP A   4      33.942   2.101  17.322  0.00  0.00    +0.143 C 
BRANCH  31  32
ATOM     32  CG  ASP A   4      35.112   2.414  16.414  0.00  0.00    +0.367 C 
ATOM     33  OD2 ASP A   4      36.189   1.788  16.596  0.00  0.00    -0.246 OA
ATOM     34  OD1 ASP A   4      34.943   3.270  15.513  0.00  0.00    -0.246 OA
ENDBRANCH  31  32
ENDBRANCH   5  31
ENDBRANCH   3   5
BRANCH   1  35
ATOM     35  CA  PHE A   3      32.902  -0.412  21.263  0.00  0.00    +0.153 C 
BRANCH  35  37
ATOM     36  C   HIS A   2      33.021  -2.540  20.101  0.00  0.00    +0.241 C 
ATOM     37  N   PHE A   3      33.460  -1.745  21.075  0.00  0.00    -0.297 N 
ATOM     38  H   PHE A   3      34.212  -2.080  21.711  0.00  0.00    +0.150 HD
ATOM     39  O   HIS A   2      32.051  -2.267  19.398  0.00  0.00    -0.273 OA
BRANCH  36  40
ATOM     40  CA  HIS A   2      33.788  -3.829  19.874  0.00  0.00    +0.155 C 
BRANCH  40  43
ATOM     41  C   VAL A   1      33.055  -6.118  19.657  0.00  0.00    +0.238 C 
ATOM     42  O   VAL A   1      34.049  -6.486  20.270  0.00  0.00    -0.274 OA
ATOM     43  N   HIS A   2      32.869  -4.840  19.337  0.00  0.00    -0.297 N 
ATOM     44  H   HIS A   2      32.083  -4.561  18.715  0.00  0.00    +0.150 HD
BRANCH  41  45
ATOM     45  CA  VAL A   1      32.005  -7.150  19.217  0.00  0.00    +0.145 C 
BRANCH  45  46
ATOM     46  CB  VAL A   1      32.650  -8.122  18.218  0.00  0.00    +0.025 C 
ATOM     47  CG2 VAL A   1      31.791  -9.357  18.045  0.00  0.00    +0.002 C 
ATOM     48  CG1 VAL A   1      32.874  -7.433  16.882  0.00  0.00    +0.002 C 
ENDBRANCH  45  46
BRANCH  45  49
ATOM     49  N   VAL A   1      30.780  -6.558  18.692  0.00  0.00    -0.238 NA
ATOM     50  H   VAL A   1      30.840  -5.894  17.894  0.00  0.00    +0.142 HD
ENDBRANCH  45  49
ENDBRANCH  41  45
ENDBRANCH  40  43
BRANCH  40  51
ATOM     51  CB  HIS A   2      34.969  -3.546  18.935  0.00  0.00    +0.076 C 
BRANCH  51  52
ATOM     52  CG  HIS A   2      35.808  -4.746  18.612  0.00  0.00    +0.082 A 
ATOM     53  ND1 HIS A   2      36.638  -5.348  19.535  0.00  0.00    -0.227 NA
ATOM     54  CE1 HIS A   2      37.254  -6.371  18.970  0.00  0.00    +0.199 A 
ATOM     55  NE2 HIS A   2      36.864  -6.449  17.711  0.00  0.00    -0.221 NA
ATOM     56  CD2 HIS A   2      35.965  -5.439  17.459  0.00  0.00    +0.115 A 
ENDBRANCH  51  52
ENDBRANCH  40  51
ENDBRANCH  36  40
ENDBRANCH  35  37
BRANCH  35  57
ATOM     57  CB  PHE A   3      32.704  -0.097  22.753  0.00  0.00    +0.055 C 
BRANCH  57  58
ATOM     58  CG  PHE A   3      31.875   1.140  23.006  0.00  0.00    -0.020 A 
ATOM     59  CD2 PHE A   3      30.524   1.034  23.292  0.00  0.00    -0.004 A 
ATOM     60  CE2 PHE A   3      29.749   2.175  23.516  0.00  0.00    -0.000 A 
ATOM     61  CZ  PHE A   3      30.334   3.428  23.462  0.00  0.00    -0.000 A 
ATOM     62  CE1 PHE A   3      31.696   3.547  23.176  0.00  0.00    -0.000 A 
ATOM     63  CD1 PHE A   3      32.453   2.404  22.951  0.00  0.00    -0.004 A 
ENDBRANCH  57  58
ENDBRANCH  35  57
ENDBRANCH   1  35
TORSDOF 24
REMARK  Name = ../refined-set-2016/4g8y/4g8y_pocket.pdb
REMARK  135 active torsions:
REMARK  status: ('A' for Active; 'I' for Inactive)
REMARK    1  A    between atoms: _1  and  _3
REMARK    2  A    between atoms: _3  and  _4
REMARK    3  A    between atoms: _7  and  _9
REMARK    4  A    between atoms: _9  and  _10
REMARK    5  A    between atoms: _9  and  _12
REMARK    6  A    between atoms: _12  and  _13
REMARK    7  A    between atoms: _13  and  _14
REMARK    8  A    between atoms: _14  and  _15
REMARK    9  A    between atoms: _15  and  _16
REMARK   10  A    between atoms: _20  and  _22
REMARK   11  A    between atoms: _22  and  _23
REMARK   12  A    between atoms: _22  and  _25
REMARK   13  A    between atoms: _25  and  _26
REMARK   14  A    between atoms: _32  and  _34
REMARK   15  A    between atoms: _34  and  _35
REMARK   16  A    between atoms: _34  and  _37
REMARK   17  A    between atoms: _37  and  _38
REMARK   18  A    between atoms: _38  and  _39
REMARK   19  A    between atoms: _39  and  _40
REMARK   20  A    between atoms: _49  and  _51
REMARK   21  A    between atoms: _51  and  _52
REMARK   22  A    between atoms: _51  and  _54
REMARK   23  A    between atoms: _54  and  _55
REMARK   24  A    between atoms: _55  and  _56
REMARK   25  A    between atoms: _61  and  _63
REMARK   26  A    between atoms: _63  and  _64
REMARK   27  A    between atoms: _63  and  _66
REMARK   28  A    between atoms: _66  and  _67
REMARK   29  A    between atoms: _72  and  _74
REMARK   30  A    between atoms: _74  and  _75
REMARK   31  A    between atoms: _74  and  _77
REMARK   32  A    between atoms: _77  and  _78
REMARK   33  A    between atoms: _78  and  _79
REMARK   34  A    between atoms: _81  and  _83
REMARK   35  A    between atoms: _83  and  _84
REMARK   36  A    between atoms: _83  and  _86
REMARK   37  A    between atoms: _86  and  _87
REMARK   38  A    between atoms: _90  and  _92
REMARK   39  A    between atoms: _92  and  _93
REMARK   40  A    between atoms: _92  and  _95
REMARK   41  A    between atoms: _95  and  _96
REMARK   42  A    between atoms: _96  and  _97
REMARK   43  A    between atoms: _97  and  _98
REMARK   44  A    between atoms: _107  and  _109
REMARK   45  A    between atoms: _109  and  _110
REMARK   46  A    between atoms: _109  and  _112
REMARK   47  A    between atoms: _112  and  _113
REMARK   48  A    between atoms: _113  and  _114
REMARK   49  A    between atoms: _114  and  _115
REMARK   50  A    between atoms: _115  and  _116
REMARK   51  A    between atoms: _121  and  _122
REMARK   52  A    between atoms: _127  and  _129
REMARK   53  A    between atoms: _129  and  _130
REMARK   54  A    between atoms: _129  and  _132
REMARK   55  A    between atoms: _135  and  _137
REMARK   56  A    between atoms: _137  and  _138
REMARK   57  A    between atoms: _137  and  _140
REMARK   58  A    between atoms: _140  and  _141
REMARK   59  A    between atoms: _146  and  _148
REMARK   60  A    between atoms: _148  and  _149
REMARK   61  A    between atoms: _148  and  _151
REMARK   62  A    between atoms: _151  and  _152
REMARK   63  A    between atoms: _155  and  _157
REMARK   64  A    between atoms: _157  and  _158
REMARK   65  A    between atoms: _157  and  _160
REMARK   66  A    between atoms: _160  and  _161
REMARK   67  A    between atoms: _167  and  _169
REMARK   68  A    between atoms: _169  and  _170
REMARK   69  A    between atoms: _169  and  _172
REMARK   70  A    between atoms: _172  and  _173
REMARK   71  A    between atoms: _173  and  _174
REMARK   72  A    between atoms: _174  and  _175
REMARK   73  A    between atoms: _175  and  _176
REMARK   74  A    between atoms: _180  and  _182
REMARK   75  A    between atoms: _182  and  _183
REMARK   76  A    between atoms: _182  and  _185
REMARK   77  A    between atoms: _185  and  _186
REMARK   78  A    between atoms: _191  and  _193
REMARK   79  A    between atoms: _193  and  _194
REMARK   80  A    between atoms: _193  and  _196
REMARK   81  A    between atoms: _196  and  _197
REMARK   82  A    between atoms: _200  and  _202
REMARK   83  A    between atoms: _202  and  _203
REMARK   84  A    between atoms: _202  and  _205
REMARK   85  A    between atoms: _205  and  _206
REMARK   86  A    between atoms: _209  and  _211
REMARK   87  A    between atoms: _211  and  _212
REMARK   88  A    between atoms: _211  and  _214
REMARK   89  A    between atoms: _214  and  _215
REMARK   90  A    between atoms: _218  and  _220
REMARK   91  A    between atoms: _220  and  _221
REMARK   92  A    between atoms: _220  and  _223
REMARK   93  A    between atoms: _225  and  _227
REMARK   94  A    between atoms: _227  and  _228
REMARK   95  A    between atoms: _227  and  _230
REMARK   96  A    between atoms: _230  and  _231
REMARK   97  A    between atoms: _231  and  _232
REMARK   98  A    between atoms: _232  and  _233
REMARK   99  A    between atoms: _242  and  _244
REMARK  100  A    between atoms: _244  and  _245
REMARK  101  A    between atoms: _244  and  _247
REMARK  102  A    between atoms: _247  and  _248
REMARK  103  A    between atoms: _248  and  _249
REMARK  104  A    between atoms: _249  and  _250
REMARK  105  A    between atoms: _250  and  _251
REMARK  106  A    between atoms: _255  and  _257
REMARK  107  A    between atoms: _257  and  _258
REMARK  108  A    between atoms: _257  and  _260
REMARK  109  A    between atoms: _260  and  _261
REMARK  110  A    between atoms: _264  and  _266
REMARK  111  A    between atoms: _266  and  _267
REMARK  112  A    between atoms: _270  and  _272
REMARK  113  A    between atoms: _272  and  _273
REMARK  114  A    between atoms: _272  and  _275
REMARK  115  A    between atoms: _278  and  _280
REMARK  116  A    between atoms: _280  and  _281
REMARK  117  A    between atoms: _280  and  _283
REMARK  118  A    between atoms: _283  and  _284
REMARK  119  A    between atoms: _289  and  _291
REMARK  120  A    between atoms: _291  and  _292
REMARK  121  A    between atoms: _291  and  _294
REMARK  122  A    between atoms: _294  and  _295
REMARK  123  A    between atoms: _301  and  _303
REMARK  124  A    between atoms: _303  and  _304
REMARK  125  A    between atoms: _303  and  _306
REMARK  126  A    between atoms: _306  and  _307
REMARK  127  A    between atoms: _310  and  _312
REMARK  128  A    between atoms: _312  and  _313
REMARK  129  A    between atoms: _316  and  _318
REMARK  130  A    between atoms: _318  and  _319
REMARK  131  A    between atoms: _318  and  _321
REMARK  132  A    between atoms: _321  and  _322
REMARK  133  A    between atoms: _324  and  _326
REMARK  134  A    between atoms: _326  and  _327
REMARK  135  A    between atoms: _326  and  _329
REMARK                            x       y       z     vdW  Elec       q    Type
REMARK                         _______ _______ _______ _____ _____    ______ ____
ROOT
ATOM      1  O   HOH     1      37.881   0.861  14.966  0.00  0.00    +0.000 OA
ENDROOT
TORSDOF 0
REMARK  Name = ../refined-set-2016/4g8y/4g8y_pocket.pdb
REMARK  135 active torsions:
REMARK  status: ('A' for Active; 'I' for Inactive)
REMARK    1  A    between atoms: _1  and  _3
REMARK    2  A    between atoms: _3  and  _4
REMARK    3  A    between atoms: _7  and  _9
REMARK    4  A    between atoms: _9  and  _10
REMARK    5  A    between atoms: _9  and  _12
REMARK    6  A    between atoms: _12  and  _13
REMARK    7  A    between atoms: _13  and  _14
REMARK    8  A    between atoms: _14  and  _15
REMARK    9  A    between atoms: _15  and  _16
REMARK   10  A    between atoms: _20  and  _22
REMARK   11  A    between atoms: _22  and  _23
REMARK   12  A    between atoms: _22  and  _25
REMARK   13  A    between atoms: _25  and  _26
REMARK   14  A    between atoms: _32  and  _34
REMARK   15  A    between atoms: _34  and  _35
REMARK   16  A    between atoms: _34  and  _37
REMARK   17  A    between atoms: _37  and  _38
REMARK   18  A    between atoms: _38  and  _39
REMARK   19  A    between atoms: _39  and  _40
REMARK   20  A    between atoms: _49  and  _51
REMARK   21  A    between atoms: _51  and  _52
REMARK   22  A    between atoms: _51  and  _54
REMARK   23  A    between atoms: _54  and  _55
REMARK   24  A    between atoms: _55  and  _56
REMARK   25  A    between atoms: _61  and  _63
REMARK   26  A    between atoms: _63  and  _64
REMARK   27  A    between atoms: _63  and  _66
REMARK   28  A    between atoms: _66  and  _67
REMARK   29  A    between atoms: _72  and  _74
REMARK   30  A    between atoms: _74  and  _75
REMARK   31  A    between atoms: _74  and  _77
REMARK   32  A    between atoms: _77  and  _78
REMARK   33  A    between atoms: _78  and  _79
REMARK   34  A    between atoms: _81  and  _83
REMARK   35  A    between atoms: _83  and  _84
REMARK   36  A    between atoms: _83  and  _86
REMARK   37  A    between atoms: _86  and  _87
REMARK   38  A    between atoms: _90  and  _92
REMARK   39  A    between atoms: _92  and  _93
REMARK   40  A    between atoms: _92  and  _95
REMARK   41  A    between atoms: _95  and  _96
REMARK   42  A    between atoms: _96  and  _97
REMARK   43  A    between atoms: _97  and  _98
REMARK   44  A    between atoms: _107  and  _109
REMARK   45  A    between atoms: _109  and  _110
REMARK   46  A    between atoms: _109  and  _112
REMARK   47  A    between atoms: _112  and  _113
REMARK   48  A    between atoms: _113  and  _114
REMARK   49  A    between atoms: _114  and  _115
REMARK   50  A    between atoms: _115  and  _116
REMARK   51  A    between atoms: _121  and  _122
REMARK   52  A    between atoms: _127  and  _129
REMARK   53  A    between atoms: _129  and  _130
REMARK   54  A    between atoms: _129  and  _132
REMARK   55  A    between atoms: _135  and  _137
REMARK   56  A    between atoms: _137  and  _138
REMARK   57  A    between atoms: _137  and  _140
REMARK   58  A    between atoms: _140  and  _141
REMARK   59  A    between atoms: _146  and  _148
REMARK   60  A    between atoms: _148  and  _149
REMARK   61  A    between atoms: _148  and  _151
REMARK   62  A    between atoms: _151  and  _152
REMARK   63  A    between atoms: _155  and  _157
REMARK   64  A    between atoms: _157  and  _158
REMARK   65  A    between atoms: _157  and  _160
REMARK   66  A    between atoms: _160  and  _161
REMARK   67  A    between atoms: _167  and  _169
REMARK   68  A    between atoms: _169  and  _170
REMARK   69  A    between atoms: _169  and  _172
REMARK   70  A    between atoms: _172  and  _173
REMARK   71  A    between atoms: _173  and  _174
REMARK   72  A    between atoms: _174  and  _175
REMARK   73  A    between atoms: _175  and  _176
REMARK   74  A    between atoms: _180  and  _182
REMARK   75  A    between atoms: _182  and  _183
REMARK   76  A    between atoms: _182  and  _185
REMARK   77  A    between atoms: _185  and  _186
REMARK   78  A    between atoms: _191  and  _193
REMARK   79  A    between atoms: _193  and  _194
REMARK   80  A    between atoms: _193  and  _196
REMARK   81  A    between atoms: _196  and  _197
REMARK   82  A    between atoms: _200  and  _202
REMARK   83  A    between atoms: _202  and  _203
REMARK   84  A    between atoms: _202  and  _205
REMARK   85  A    between atoms: _205  and  _206
REMARK   86  A    between atoms: _209  and  _211
REMARK   87  A    between atoms: _211  and  _212
REMARK   88  A    between atoms: _211  and  _214
REMARK   89  A    between atoms: _214  and  _215
REMARK   90  A    between atoms: _218  and  _220
REMARK   91  A    between atoms: _220  and  _221
REMARK   92  A    between atoms: _220  and  _223
REMARK   93  A    between atoms: _225  and  _227
REMARK   94  A    between atoms: _227  and  _228
REMARK   95  A    between atoms: _227  and  _230
REMARK   96  A    between atoms: _230  and  _231
REMARK   97  A    between atoms: _231  and  _232
REMARK   98  A    between atoms: _232  and  _233
REMARK   99  A    between atoms: _242  and  _244
REMARK  100  A    between atoms: _244  and  _245
REMARK  101  A    between atoms: _244  and  _247
REMARK  102  A    between atoms: _247  and  _248
REMARK  103  A    between atoms: _248  and  _249
REMARK  104  A    between atoms: _249  and  _250
REMARK  105  A    between atoms: _250  and  _251
REMARK  106  A    between atoms: _255  and  _257
REMARK  107  A    between atoms: _257  and  _258
REMARK  108  A    between atoms: _257  and  _260
REMARK  109  A    between atoms: _260  and  _261
REMARK  110  A    between atoms: _264  and  _266
REMARK  111  A    between atoms: _266  and  _267
REMARK  112  A    between atoms: _270  and  _272
REMARK  113  A    between atoms: _272  and  _273
REMARK  114  A    between atoms: _272  and  _275
REMARK  115  A    between atoms: _278  and  _280
REMARK  116  A    between atoms: _280  and  _281
REMARK  117  A    between atoms: _280  and  _283
REMARK  118  A    between atoms: _283  and  _284
REMARK  119  A    between atoms: _289  and  _291
REMARK  120  A    between atoms: _291  and  _292
REMARK  121  A    between atoms: _291  and  _294
REMARK  122  A    between atoms: _294  and  _295
REMARK  123  A    between atoms: _301  and  _303
REMARK  124  A    between atoms: _303  and  _304
REMARK  125  A    between atoms: _303  and  _306
REMARK  126  A    between atoms: _306  and  _307
REMARK  127  A    between atoms: _310  and  _312
REMARK  128  A    between atoms: _312  and  _313
REMARK  129  A    between atoms: _316  and  _318
REMARK  130  A    between atoms: _318  and  _319
REMARK  131  A    between atoms: _318  and  _321
REMARK  132  A    between atoms: _321  and  _322
REMARK  133  A    between atoms: _324  and  _326
REMARK  134  A    between atoms: _326  and  _327
REMARK  135  A    between atoms: _326  and  _329
REMARK                            x       y       z     vdW  Elec       q    Type
REMARK                         _______ _______ _______ _____ _____    ______ ____
ROOT
ATOM      1  O   HOH     1      36.817  -1.703  14.884  0.00  0.00    +0.000 OA
ENDROOT
TORSDOF 0
REMARK  Name = ../refined-set-2016/4g8y/4g8y_pocket.pdb
REMARK  135 active torsions:
REMARK  status: ('A' for Active; 'I' for Inactive)
REMARK    1  A    between atoms: _1  and  _3
REMARK    2  A    between atoms: _3  and  _4
REMARK    3  A    between atoms: _7  and  _9
REMARK    4  A    between atoms: _9  and  _10
REMARK    5  A    between atoms: _9  and  _12
REMARK    6  A    between atoms: _12  and  _13
REMARK    7  A    between atoms: _13  and  _14
REMARK    8  A    between atoms: _14  and  _15
REMARK    9  A    between atoms: _15  and  _16
REMARK   10  A    between atoms: _20  and  _22
REMARK   11  A    between atoms: _22  and  _23
REMARK   12  A    between atoms: _22  and  _25
REMARK   13  A    between atoms: _25  and  _26
REMARK   14  A    between atoms: _32  and  _34
REMARK   15  A    between atoms: _34  and  _35
REMARK   16  A    between atoms: _34  and  _37
REMARK   17  A    between atoms: _37  and  _38
REMARK   18  A    between atoms: _38  and  _39
REMARK   19  A    between atoms: _39  and  _40
REMARK   20  A    between atoms: _49  and  _51
REMARK   21  A    between atoms: _51  and  _52
REMARK   22  A    between atoms: _51  and  _54
REMARK   23  A    between atoms: _54  and  _55
REMARK   24  A    between atoms: _55  and  _56
REMARK   25  A    between atoms: _61  and  _63
REMARK   26  A    between atoms: _63  and  _64
REMARK   27  A    between atoms: _63  and  _66
REMARK   28  A    between atoms: _66  and  _67
REMARK   29  A    between atoms: _72  and  _74
REMARK   30  A    between atoms: _74  and  _75
REMARK   31  A    between atoms: _74  and  _77
REMARK   32  A    between atoms: _77  and  _78
REMARK   33  A    between atoms: _78  and  _79
REMARK   34  A    between atoms: _81  and  _83
REMARK   35  A    between atoms: _83  and  _84
REMARK   36  A    between atoms: _83  and  _86
REMARK   37  A    between atoms: _86  and  _87
REMARK   38  A    between atoms: _90  and  _92
REMARK   39  A    between atoms: _92  and  _93
REMARK   40  A    between atoms: _92  and  _95
REMARK   41  A    between atoms: _95  and  _96
REMARK   42  A    between atoms: _96  and  _97
REMARK   43  A    between atoms: _97  and  _98
REMARK   44  A    between atoms: _107  and  _109
REMARK   45  A    between atoms: _109  and  _110
REMARK   46  A    between atoms: _109  and  _112
REMARK   47  A    between atoms: _112  and  _113
REMARK   48  A    between atoms: _113  and  _114
REMARK   49  A    between atoms: _114  and  _115
REMARK   50  A    between atoms: _115  and  _116
REMARK   51  A    between atoms: _121  and  _122
REMARK   52  A    between atoms: _127  and  _129
REMARK   53  A    between atoms: _129  and  _130
REMARK   54  A    between atoms: _129  and  _132
REMARK   55  A    between atoms: _135  and  _137
REMARK   56  A    between atoms: _137  and  _138
REMARK   57  A    between atoms: _137  and  _140
REMARK   58  A    between atoms: _140  and  _141
REMARK   59  A    between atoms: _146  and  _148
REMARK   60  A    between atoms: _148  and  _149
REMARK   61  A    between atoms: _148  and  _151
REMARK   62  A    between atoms: _151  and  _152
REMARK   63  A    between atoms: _155  and  _157
REMARK   64  A    between atoms: _157  and  _158
REMARK   65  A    between atoms: _157  and  _160
REMARK   66  A    between atoms: _160  and  _161
REMARK   67  A    between atoms: _167  and  _169
REMARK   68  A    between atoms: _169  and  _170
REMARK   69  A    between atoms: _169  and  _172
REMARK   70  A    between atoms: _172  and  _173
REMARK   71  A    between atoms: _173  and  _174
REMARK   72  A    between atoms: _174  and  _175
REMARK   73  A    between atoms: _175  and  _176
REMARK   74  A    between atoms: _180  and  _182
REMARK   75  A    between atoms: _182  and  _183
REMARK   76  A    between atoms: _182  and  _185
REMARK   77  A    between atoms: _185  and  _186
REMARK   78  A    between atoms: _191  and  _193
REMARK   79  A    between atoms: _193  and  _194
REMARK   80  A    between atoms: _193  and  _196
REMARK   81  A    between atoms: _196  and  _197
REMARK   82  A    between atoms: _200  and  _202
REMARK   83  A    between atoms: _202  and  _203
REMARK   84  A    between atoms: _202  and  _205
REMARK   85  A    between atoms: _205  and  _206
REMARK   86  A    between atoms: _209  and  _211
REMARK   87  A    between atoms: _211  and  _212
REMARK   88  A    between atoms: _211  and  _214
REMARK   89  A    between atoms: _214  and  _215
REMARK   90  A    between atoms: _218  and  _220
REMARK   91  A    between atoms: _220  and  _221
REMARK   92  A    between atoms: _220  and  _223
REMARK   93  A    between atoms: _225  and  _227
REMARK   94  A    between atoms: _227  and  _228
REMARK   95  A    between atoms: _227  and  _230
REMARK   96  A    between atoms: _230  and  _231
REMARK   97  A    between atoms: _231  and  _232
REMARK   98  A    between atoms: _232  and  _233
REMARK   99  A    between atoms: _242  and  _244
REMARK  100  A    between atoms: _244  and  _245
REMARK  101  A    between atoms: _244  and  _247
REMARK  102  A    between atoms: _247  and  _248
REMARK  103  A    between atoms: _248  and  _249
REMARK  104  A    between atoms: _249  and  _250
REMARK  105  A    between atoms: _250  and  _251
REMARK  106  A    between atoms: _255  and  _257
REMARK  107  A    between atoms: _257  and  _258
REMARK  108  A    between atoms: _257  and  _260
REMARK  109  A    between atoms: _260  and  _261
REMARK  110  A    between atoms: _264  and  _266
REMARK  111  A    between atoms: _266  and  _267
REMARK  112  A    between atoms: _270  and  _272
REMARK  113  A    between atoms: _272  and  _273
REMARK  114  A    between atoms: _272  and  _275
REMARK  115  A    between atoms: _278  and  _280
REMARK  116  A    between atoms: _280  and  _281
REMARK  117  A    between atoms: _280  and  _283
REMARK  118  A    between atoms: _283  and  _284
REMARK  119  A    between atoms: _289  and  _291
REMARK  120  A    between atoms: _291  and  _292
REMARK  121  A    between atoms: _291  and  _294
REMARK  122  A    between atoms: _294  and  _295
REMARK  123  A    between atoms: _301  and  _303
REMARK  124  A    between atoms: _303  and  _304
REMARK  125  A    between atoms: _303  and  _306
REMARK  126  A    between atoms: _306  and  _307
REMARK  127  A    between atoms: _310  and  _312
REMARK  128  A    between atoms: _312  and  _313
REMARK  129  A    between atoms: _316  and  _318
REMARK  130  A    between atoms: _318  and  _319
REMARK  131  A    between atoms: _318  and  _321
REMARK  132  A    between atoms: _321  and  _322
REMARK  133  A    between atoms: _324  and  _326
REMARK  134  A    between atoms: _326  and  _327
REMARK  135  A    between atoms: _326  and  _329
REMARK                            x       y       z     vdW  Elec       q    Type
REMARK                         _______ _______ _______ _____ _____    ______ ____
ROOT
ATOM      1  O   HOH     1      34.494   8.189  21.766  0.00  0.00    +0.000 OA
ENDROOT
TORSDOF 0
REMARK  Name = ../refined-set-2016/4g8y/4g8y_pocket.pdb
REMARK  135 active torsions:
REMARK  status: ('A' for Active; 'I' for Inactive)
REMARK    1  A    between atoms: _1  and  _3
REMARK    2  A    between atoms: _3  and  _4
REMARK    3  A    between atoms: _7  and  _9
REMARK    4  A    between atoms: _9  and  _10
REMARK    5  A    between atoms: _9  and  _12
REMARK    6  A    between atoms: _12  and  _13
REMARK    7  A    between atoms: _13  and  _14
REMARK    8  A    between atoms: _14  and  _15
REMARK    9  A    between atoms: _15  and  _16
REMARK   10  A    between atoms: _20  and  _22
REMARK   11  A    between atoms: _22  and  _23
REMARK   12  A    between atoms: _22  and  _25
REMARK   13  A    between atoms: _25  and  _26
REMARK   14  A    between atoms: _32  and  _34
REMARK   15  A    between atoms: _34  and  _35
REMARK   16  A    between atoms: _34  and  _37
REMARK   17  A    between atoms: _37  and  _38
REMARK   18  A    between atoms: _38  and  _39
REMARK   19  A    between atoms: _39  and  _40
REMARK   20  A    between atoms: _49  and  _51
REMARK   21  A    between atoms: _51  and  _52
REMARK   22  A    between atoms: _51  and  _54
REMARK   23  A    between atoms: _54  and  _55
REMARK   24  A    between atoms: _55  and  _56
REMARK   25  A    between atoms: _61  and  _63
REMARK   26  A    between atoms: _63  and  _64
REMARK   27  A    between atoms: _63  and  _66
REMARK   28  A    between atoms: _66  and  _67
REMARK   29  A    between atoms: _72  and  _74
REMARK   30  A    between atoms: _74  and  _75
REMARK   31  A    between atoms: _74  and  _77
REMARK   32  A    between atoms: _77  and  _78
REMARK   33  A    between atoms: _78  and  _79
REMARK   34  A    between atoms: _81  and  _83
REMARK   35  A    between atoms: _83  and  _84
REMARK   36  A    between atoms: _83  and  _86
REMARK   37  A    between atoms: _86  and  _87
REMARK   38  A    between atoms: _90  and  _92
REMARK   39  A    between atoms: _92  and  _93
REMARK   40  A    between atoms: _92  and  _95
REMARK   41  A    between atoms: _95  and  _96
REMARK   42  A    between atoms: _96  and  _97
REMARK   43  A    between atoms: _97  and  _98
REMARK   44  A    between atoms: _107  and  _109
REMARK   45  A    between atoms: _109  and  _110
REMARK   46  A    between atoms: _109  and  _112
REMARK   47  A    between atoms: _112  and  _113
REMARK   48  A    between atoms: _113  and  _114
REMARK   49  A    between atoms: _114  and  _115
REMARK   50  A    between atoms: _115  and  _116
REMARK   51  A    between atoms: _121  and  _122
REMARK   52  A    between atoms: _127  and  _129
REMARK   53  A    between atoms: _129  and  _130
REMARK   54  A    between atoms: _129  and  _132
REMARK   55  A    between atoms: _135  and  _137
REMARK   56  A    between atoms: _137  and  _138
REMARK   57  A    between atoms: _137  and  _140
REMARK   58  A    between atoms: _140  and  _141
REMARK   59  A    between atoms: _146  and  _148
REMARK   60  A    between atoms: _148  and  _149
REMARK   61  A    between atoms: _148  and  _151
REMARK   62  A    between atoms: _151  and  _152
REMARK   63  A    between atoms: _155  and  _157
REMARK   64  A    between atoms: _157  and  _158
REMARK   65  A    between atoms: _157  and  _160
REMARK   66  A    between atoms: _160  and  _161
REMARK   67  A    between atoms: _167  and  _169
REMARK   68  A    between atoms: _169  and  _170
REMARK   69  A    between atoms: _169  and  _172
REMARK   70  A    between atoms: _172  and  _173
REMARK   71  A    between atoms: _173  and  _174
REMARK   72  A    between atoms: _174  and  _175
REMARK   73  A    between atoms: _175  and  _176
REMARK   74  A    between atoms: _180  and  _182
REMARK   75  A    between atoms: _182  and  _183
REMARK   76  A    between atoms: _182  and  _185
REMARK   77  A    between atoms: _185  and  _186
REMARK   78  A    between atoms: _191  and  _193
REMARK   79  A    between atoms: _193  and  _194
REMARK   80  A    between atoms: _193  and  _196
REMARK   81  A    between atoms: _196  and  _197
REMARK   82  A    between atoms: _200  and  _202
REMARK   83  A    between atoms: _202  and  _203
REMARK   84  A    between atoms: _202  and  _205
REMARK   85  A    between atoms: _205  and  _206
REMARK   86  A    between atoms: _209  and  _211
REMARK   87  A    between atoms: _211  and  _212
REMARK   88  A    between atoms: _211  and  _214
REMARK   89  A    between atoms: _214  and  _215
REMARK   90  A    between atoms: _218  and  _220
REMARK   91  A    between atoms: _220  and  _221
REMARK   92  A    between atoms: _220  and  _223
REMARK   93  A    between atoms: _225  and  _227
REMARK   94  A    between atoms: _227  and  _228
REMARK   95  A    between atoms: _227  and  _230
REMARK   96  A    between atoms: _230  and  _231
REMARK   97  A    between atoms: _231  and  _232
REMARK   98  A    between atoms: _232  and  _233
REMARK   99  A    between atoms: _242  and  _244
REMARK  100  A    between atoms: _244  and  _245
REMARK  101  A    between atoms: _244  and  _247
REMARK  102  A    between atoms: _247  and  _248
REMARK  103  A    between atoms: _248  and  _249
REMARK  104  A    between atoms: _249  and  _250
REMARK  105  A    between atoms: _250  and  _251
REMARK  106  A    between atoms: _255  and  _257
REMARK  107  A    between atoms: _257  and  _258
REMARK  108  A    between atoms: _257  and  _260
REMARK  109  A    between atoms: _260  and  _261
REMARK  110  A    between atoms: _264  and  _266
REMARK  111  A    between atoms: _266  and  _267
REMARK  112  A    between atoms: _270  and  _272
REMARK  113  A    between atoms: _272  and  _273
REMARK  114  A    between atoms: _272  and  _275
REMARK  115  A    between atoms: _278  and  _280
REMARK  116  A    between atoms: _280  and  _281
REMARK  117  A    between atoms: _280  and  _283
REMARK  118  A    between atoms: _283  and  _284
REMARK  119  A    between atoms: _289  and  _291
REMARK  120  A    between atoms: _291  and  _292
REMARK  121  A    between atoms: _291  and  _294
REMARK  122  A    between atoms: _294  and  _295
REMARK  123  A    between atoms: _301  and  _303
REMARK  124  A    between atoms: _303  and  _304
REMARK  125  A    between atoms: _303  and  _306
REMARK  126  A    between atoms: _306  and  _307
REMARK  127  A    between atoms: _310  and  _312
REMARK  128  A    between atoms: _312  and  _313
REMARK  129  A    between atoms: _316  and  _318
REMARK  130  A    between atoms: _318  and  _319
REMARK  131  A    between atoms: _318  and  _321
REMARK  132  A    between atoms: _321  and  _322
REMARK  133  A    between atoms: _324  and  _326
REMARK  134  A    between atoms: _326  and  _327
REMARK  135  A    between atoms: _326  and  _329
REMARK                            x       y       z     vdW  Elec       q    Type
REMARK                         _______ _______ _______ _____ _____    ______ ____
ROOT
ATOM      1  O   HOH     1      35.172  -5.634  14.089  0.00  0.00    +0.000 OA
ENDROOT
TORSDOF 0
REMARK  Name = ../refined-set-2016/4g8y/4g8y_pocket.pdb
REMARK  135 active torsions:
REMARK  status: ('A' for Active; 'I' for Inactive)
REMARK    1  A    between atoms: _1  and  _3
REMARK    2  A    between atoms: _3  and  _4
REMARK    3  A    between atoms: _7  and  _9
REMARK    4  A    between atoms: _9  and  _10
REMARK    5  A    between atoms: _9  and  _12
REMARK    6  A    between atoms: _12  and  _13
REMARK    7  A    between atoms: _13  and  _14
REMARK    8  A    between atoms: _14  and  _15
REMARK    9  A    between atoms: _15  and  _16
REMARK   10  A    between atoms: _20  and  _22
REMARK   11  A    between atoms: _22  and  _23
REMARK   12  A    between atoms: _22  and  _25
REMARK   13  A    between atoms: _25  and  _26
REMARK   14  A    between atoms: _32  and  _34
REMARK   15  A    between atoms: _34  and  _35
REMARK   16  A    between atoms: _34  and  _37
REMARK   17  A    between atoms: _37  and  _38
REMARK   18  A    between atoms: _38  and  _39
REMARK   19  A    between atoms: _39  and  _40
REMARK   20  A    between atoms: _49  and  _51
REMARK   21  A    between atoms: _51  and  _52
REMARK   22  A    between atoms: _51  and  _54
REMARK   23  A    between atoms: _54  and  _55
REMARK   24  A    between atoms: _55  and  _56
REMARK   25  A    between atoms: _61  and  _63
REMARK   26  A    between atoms: _63  and  _64
REMARK   27  A    between atoms: _63  and  _66
REMARK   28  A    between atoms: _66  and  _67
REMARK   29  A    between atoms: _72  and  _74
REMARK   30  A    between atoms: _74  and  _75
REMARK   31  A    between atoms: _74  and  _77
REMARK   32  A    between atoms: _77  and  _78
REMARK   33  A    between atoms: _78  and  _79
REMARK   34  A    between atoms: _81  and  _83
REMARK   35  A    between atoms: _83  and  _84
REMARK   36  A    between atoms: _83  and  _86
REMARK   37  A    between atoms: _86  and  _87
REMARK   38  A    between atoms: _90  and  _92
REMARK   39  A    between atoms: _92  and  _93
REMARK   40  A    between atoms: _92  and  _95
REMARK   41  A    between atoms: _95  and  _96
REMARK   42  A    between atoms: _96  and  _97
REMARK   43  A    between atoms: _97  and  _98
REMARK   44  A    between atoms: _107  and  _109
REMARK   45  A    between atoms: _109  and  _110
REMARK   46  A    between atoms: _109  and  _112
REMARK   47  A    between atoms: _112  and  _113
REMARK   48  A    between atoms: _113  and  _114
REMARK   49  A    between atoms: _114  and  _115
REMARK   50  A    between atoms: _115  and  _116
REMARK   51  A    between atoms: _121  and  _122
REMARK   52  A    between atoms: _127  and  _129
REMARK   53  A    between atoms: _129  and  _130
REMARK   54  A    between atoms: _129  and  _132
REMARK   55  A    between atoms: _135  and  _137
REMARK   56  A    between atoms: _137  and  _138
REMARK   57  A    between atoms: _137  and  _140
REMARK   58  A    between atoms: _140  and  _141
REMARK   59  A    between atoms: _146  and  _148
REMARK   60  A    between atoms: _148  and  _149
REMARK   61  A    between atoms: _148  and  _151
REMARK   62  A    between atoms: _151  and  _152
REMARK   63  A    between atoms: _155  and  _157
REMARK   64  A    between atoms: _157  and  _158
REMARK   65  A    between atoms: _157  and  _160
REMARK   66  A    between atoms: _160  and  _161
REMARK   67  A    between atoms: _167  and  _169
REMARK   68  A    between atoms: _169  and  _170
REMARK   69  A    between atoms: _169  and  _172
REMARK   70  A    between atoms: _172  and  _173
REMARK   71  A    between atoms: _173  and  _174
REMARK   72  A    between atoms: _174  and  _175
REMARK   73  A    between atoms: _175  and  _176
REMARK   74  A    between atoms: _180  and  _182
REMARK   75  A    between atoms: _182  and  _183
REMARK   76  A    between atoms: _182  and  _185
REMARK   77  A    between atoms: _185  and  _186
REMARK   78  A    between atoms: _191  and  _193
REMARK   79  A    between atoms: _193  and  _194
REMARK   80  A    between atoms: _193  and  _196
REMARK   81  A    between atoms: _196  and  _197
REMARK   82  A    between atoms: _200  and  _202
REMARK   83  A    between atoms: _202  and  _203
REMARK   84  A    between atoms: _202  and  _205
REMARK   85  A    between atoms: _205  and  _206
REMARK   86  A    between atoms: _209  and  _211
REMARK   87  A    between atoms: _211  and  _212
REMARK   88  A    between atoms: _211  and  _214
REMARK   89  A    between atoms: _214  and  _215
REMARK   90  A    between atoms: _218  and  _220
REMARK   91  A    between atoms: _220  and  _221
REMARK   92  A    between atoms: _220  and  _223
REMARK   93  A    between atoms: _225  and  _227
REMARK   94  A    between atoms: _227  and  _228
REMARK   95  A    between atoms: _227  and  _230
REMARK   96  A    between atoms: _230  and  _231
REMARK   97  A    between atoms: _231  and  _232
REMARK   98  A    between atoms: _232  and  _233
REMARK   99  A    between atoms: _242  and  _244
REMARK  100  A    between atoms: _244  and  _245
REMARK  101  A    between atoms: _244  and  _247
REMARK  102  A    between atoms: _247  and  _248
REMARK  103  A    between atoms: _248  and  _249
REMARK  104  A    between atoms: _249  and  _250
REMARK  105  A    between atoms: _250  and  _251
REMARK  106  A    between atoms: _255  and  _257
REMARK  107  A    between atoms: _257  and  _258
REMARK  108  A    between atoms: _257  and  _260
REMARK  109  A    between atoms: _260  and  _261
REMARK  110  A    between atoms: _264  and  _266
REMARK  111  A    between atoms: _266  and  _267
REMARK  112  A    between atoms: _270  and  _272
REMARK  113  A    between atoms: _272  and  _273
REMARK  114  A    between atoms: _272  and  _275
REMARK  115  A    between atoms: _278  and  _280
REMARK  116  A    between atoms: _280  and  _281
REMARK  117  A    between atoms: _280  and  _283
REMARK  118  A    between atoms: _283  and  _284
REMARK  119  A    between atoms: _289  and  _291
REMARK  120  A    between atoms: _291  and  _292
REMARK  121  A    between atoms: _291  and  _294
REMARK  122  A    between atoms: _294  and  _295
REMARK  123  A    between atoms: _301  and  _303
REMARK  124  A    between atoms: _303  and  _304
REMARK  125  A    between atoms: _303  and  _306
REMARK  126  A    between atoms: _306  and  _307
REMARK  127  A    between atoms: _310  and  _312
REMARK  128  A    between atoms: _312  and  _313
REMARK  129  A    between atoms: _316  and  _318
REMARK  130  A    between atoms: _318  and  _319
REMARK  131  A    between atoms: _318  and  _321
REMARK  132  A    between atoms: _321  and  _322
REMARK  133  A    between atoms: _324  and  _326
REMARK  134  A    between atoms: _326  and  _327
REMARK  135  A    between atoms: _326  and  _329
REMARK                            x       y       z     vdW  Elec       q    Type
REMARK                         _______ _______ _______ _____ _____    ______ ____
ROOT
ATOM      1  O   HOH     1      34.638  -5.421  23.691  0.00  0.00    +0.000 OA
ENDROOT
TORSDOF 0
REMARK  Name = ../refined-set-2016/4g8y/4g8y_pocket.pdb
REMARK  135 active torsions:
REMARK  status: ('A' for Active; 'I' for Inactive)
REMARK    1  A    between atoms: _1  and  _3
REMARK    2  A    between atoms: _3  and  _4
REMARK    3  A    between atoms: _7  and  _9
REMARK    4  A    between atoms: _9  and  _10
REMARK    5  A    between atoms: _9  and  _12
REMARK    6  A    between atoms: _12  and  _13
REMARK    7  A    between atoms: _13  and  _14
REMARK    8  A    between atoms: _14  and  _15
REMARK    9  A    between atoms: _15  and  _16
REMARK   10  A    between atoms: _20  and  _22
REMARK   11  A    between atoms: _22  and  _23
REMARK   12  A    between atoms: _22  and  _25
REMARK   13  A    between atoms: _25  and  _26
REMARK   14  A    between atoms: _32  and  _34
REMARK   15  A    between atoms: _34  and  _35
REMARK   16  A    between atoms: _34  and  _37
REMARK   17  A    between atoms: _37  and  _38
REMARK   18  A    between atoms: _38  and  _39
REMARK   19  A    between atoms: _39  and  _40
REMARK   20  A    between atoms: _49  and  _51
REMARK   21  A    between atoms: _51  and  _52
REMARK   22  A    between atoms: _51  and  _54
REMARK   23  A    between atoms: _54  and  _55
REMARK   24  A    between atoms: _55  and  _56
REMARK   25  A    between atoms: _61  and  _63
REMARK   26  A    between atoms: _63  and  _64
REMARK   27  A    between atoms: _63  and  _66
REMARK   28  A    between atoms: _66  and  _67
REMARK   29  A    between atoms: _72  and  _74
REMARK   30  A    between atoms: _74  and  _75
REMARK   31  A    between atoms: _74  and  _77
REMARK   32  A    between atoms: _77  and  _78
REMARK   33  A    between atoms: _78  and  _79
REMARK   34  A    between atoms: _81  and  _83
REMARK   35  A    between atoms: _83  and  _84
REMARK   36  A    between atoms: _83  and  _86
REMARK   37  A    between atoms: _86  and  _87
REMARK   38  A    between atoms: _90  and  _92
REMARK   39  A    between atoms: _92  and  _93
REMARK   40  A    between atoms: _92  and  _95
REMARK   41  A    between atoms: _95  and  _96
REMARK   42  A    between atoms: _96  and  _97
REMARK   43  A    between atoms: _97  and  _98
REMARK   44  A    between atoms: _107  and  _109
REMARK   45  A    between atoms: _109  and  _110
REMARK   46  A    between atoms: _109  and  _112
REMARK   47  A    between atoms: _112  and  _113
REMARK   48  A    between atoms: _113  and  _114
REMARK   49  A    between atoms: _114  and  _115
REMARK   50  A    between atoms: _115  and  _116
REMARK   51  A    between atoms: _121  and  _122
REMARK   52  A    between atoms: _127  and  _129
REMARK   53  A    between atoms: _129  and  _130
REMARK   54  A    between atoms: _129  and  _132
REMARK   55  A    between atoms: _135  and  _137
REMARK   56  A    between atoms: _137  and  _138
REMARK   57  A    between atoms: _137  and  _140
REMARK   58  A    between atoms: _140  and  _141
REMARK   59  A    between atoms: _146  and  _148
REMARK   60  A    between atoms: _148  and  _149
REMARK   61  A    between atoms: _148  and  _151
REMARK   62  A    between atoms: _151  and  _152
REMARK   63  A    between atoms: _155  and  _157
REMARK   64  A    between atoms: _157  and  _158
REMARK   65  A    between atoms: _157  and  _160
REMARK   66  A    between atoms: _160  and  _161
REMARK   67  A    between atoms: _167  and  _169
REMARK   68  A    between atoms: _169  and  _170
REMARK   69  A    between atoms: _169  and  _172
REMARK   70  A    between atoms: _172  and  _173
REMARK   71  A    between atoms: _173  and  _174
REMARK   72  A    between atoms: _174  and  _175
REMARK   73  A    between atoms: _175  and  _176
REMARK   74  A    between atoms: _180  and  _182
REMARK   75  A    between atoms: _182  and  _183
REMARK   76  A    between atoms: _182  and  _185
REMARK   77  A    between atoms: _185  and  _186
REMARK   78  A    between atoms: _191  and  _193
REMARK   79  A    between atoms: _193  and  _194
REMARK   80  A    between atoms: _193  and  _196
REMARK   81  A    between atoms: _196  and  _197
REMARK   82  A    between atoms: _200  and  _202
REMARK   83  A    between atoms: _202  and  _203
REMARK   84  A    between atoms: _202  and  _205
REMARK   85  A    between atoms: _205  and  _206
REMARK   86  A    between atoms: _209  and  _211
REMARK   87  A    between atoms: _211  and  _212
REMARK   88  A    between atoms: _211  and  _214
REMARK   89  A    between atoms: _214  and  _215
REMARK   90  A    between atoms: _218  and  _220
REMARK   91  A    between atoms: _220  and  _221
REMARK   92  A    between atoms: _220  and  _223
REMARK   93  A    between atoms: _225  and  _227
REMARK   94  A    between atoms: _227  and  _228
REMARK   95  A    between atoms: _227  and  _230
REMARK   96  A    between atoms: _230  and  _231
REMARK   97  A    between atoms: _231  and  _232
REMARK   98  A    between atoms: _232  and  _233
REMARK   99  A    between atoms: _242  and  _244
REMARK  100  A    between atoms: _244  and  _245
REMARK  101  A    between atoms: _244  and  _247
REMARK  102  A    between atoms: _247  and  _248
REMARK  103  A    between atoms: _248  and  _249
REMARK  104  A    between atoms: _249  and  _250
REMARK  105  A    between atoms: _250  and  _251
REMARK  106  A    between atoms: _255  and  _257
REMARK  107  A    between atoms: _257  and  _258
REMARK  108  A    between atoms: _257  and  _260
REMARK  109  A    between atoms: _260  and  _261
REMARK  110  A    between atoms: _264  and  _266
REMARK  111  A    between atoms: _266  and  _267
REMARK  112  A    between atoms: _270  and  _272
REMARK  113  A    between atoms: _272  and  _273
REMARK  114  A    between atoms: _272  and  _275
REMARK  115  A    between atoms: _278  and  _280
REMARK  116  A    between atoms: _280  and  _281
REMARK  117  A    between atoms: _280  and  _283
REMARK  118  A    between atoms: _283  and  _284
REMARK  119  A    between atoms: _289  and  _291
REMARK  120  A    between atoms: _291  and  _292
REMARK  121  A    between atoms: _291  and  _294
REMARK  122  A    between atoms: _294  and  _295
REMARK  123  A    between atoms: _301  and  _303
REMARK  124  A    between atoms: _303  and  _304
REMARK  125  A    between atoms: _303  and  _306
REMARK  126  A    between atoms: _306  and  _307
REMARK  127  A    between atoms: _310  and  _312
REMARK  128  A    between atoms: _312  and  _313
REMARK  129  A    between atoms: _316  and  _318
REMARK  130  A    between atoms: _318  and  _319
REMARK  131  A    between atoms: _318  and  _321
REMARK  132  A    between atoms: _321  and  _322
REMARK  133  A    between atoms: _324  and  _326
REMARK  134  A    between atoms: _326  and  _327
REMARK  135  A    between atoms: _326  and  _329
REMARK                            x       y       z     vdW  Elec       q    Type
REMARK                         _______ _______ _______ _____ _____    ______ ____
ROOT
ATOM      1  O   HOH     1      38.891  -3.394  16.005  0.00  0.00    +0.000 OA
ENDROOT
TORSDOF 0
REMARK  Name = ../refined-set-2016/4g8y/4g8y_pocket.pdb
REMARK  135 active torsions:
REMARK  status: ('A' for Active; 'I' for Inactive)
REMARK    1  A    between atoms: _1  and  _3
REMARK    2  A    between atoms: _3  and  _4
REMARK    3  A    between atoms: _7  and  _9
REMARK    4  A    between atoms: _9  and  _10
REMARK    5  A    between atoms: _9  and  _12
REMARK    6  A    between atoms: _12  and  _13
REMARK    7  A    between atoms: _13  and  _14
REMARK    8  A    between atoms: _14  and  _15
REMARK    9  A    between atoms: _15  and  _16
REMARK   10  A    between atoms: _20  and  _22
REMARK   11  A    between atoms: _22  and  _23
REMARK   12  A    between atoms: _22  and  _25
REMARK   13  A    between atoms: _25  and  _26
REMARK   14  A    between atoms: _32  and  _34
REMARK   15  A    between atoms: _34  and  _35
REMARK   16  A    between atoms: _34  and  _37
REMARK   17  A    between atoms: _37  and  _38
REMARK   18  A    between atoms: _38  and  _39
REMARK   19  A    between atoms: _39  and  _40
REMARK   20  A    between atoms: _49  and  _51
REMARK   21  A    between atoms: _51  and  _52
REMARK   22  A    between atoms: _51  and  _54
REMARK   23  A    between atoms: _54  and  _55
REMARK   24  A    between atoms: _55  and  _56
REMARK   25  A    between atoms: _61  and  _63
REMARK   26  A    between atoms: _63  and  _64
REMARK   27  A    between atoms: _63  and  _66
REMARK   28  A    between atoms: _66  and  _67
REMARK   29  A    between atoms: _72  and  _74
REMARK   30  A    between atoms: _74  and  _75
REMARK   31  A    between atoms: _74  and  _77
REMARK   32  A    between atoms: _77  and  _78
REMARK   33  A    between atoms: _78  and  _79
REMARK   34  A    between atoms: _81  and  _83
REMARK   35  A    between atoms: _83  and  _84
REMARK   36  A    between atoms: _83  and  _86
REMARK   37  A    between atoms: _86  and  _87
REMARK   38  A    between atoms: _90  and  _92
REMARK   39  A    between atoms: _92  and  _93
REMARK   40  A    between atoms: _92  and  _95
REMARK   41  A    between atoms: _95  and  _96
REMARK   42  A    between atoms: _96  and  _97
REMARK   43  A    between atoms: _97  and  _98
REMARK   44  A    between atoms: _107  and  _109
REMARK   45  A    between atoms: _109  and  _110
REMARK   46  A    between atoms: _109  and  _112
REMARK   47  A    between atoms: _112  and  _113
REMARK   48  A    between atoms: _113  and  _114
REMARK   49  A    between atoms: _114  and  _115
REMARK   50  A    between atoms: _115  and  _116
REMARK   51  A    between atoms: _121  and  _122
REMARK   52  A    between atoms: _127  and  _129
REMARK   53  A    between atoms: _129  and  _130
REMARK   54  A    between atoms: _129  and  _132
REMARK   55  A    between atoms: _135  and  _137
REMARK   56  A    between atoms: _137  and  _138
REMARK   57  A    between atoms: _137  and  _140
REMARK   58  A    between atoms: _140  and  _141
REMARK   59  A    between atoms: _146  and  _148
REMARK   60  A    between atoms: _148  and  _149
REMARK   61  A    between atoms: _148  and  _151
REMARK   62  A    between atoms: _151  and  _152
REMARK   63  A    between atoms: _155  and  _157
REMARK   64  A    between atoms: _157  and  _158
REMARK   65  A    between atoms: _157  and  _160
REMARK   66  A    between atoms: _160  and  _161
REMARK   67  A    between atoms: _167  and  _169
REMARK   68  A    between atoms: _169  and  _170
REMARK   69  A    between atoms: _169  and  _172
REMARK   70  A    between atoms: _172  and  _173
REMARK   71  A    between atoms: _173  and  _174
REMARK   72  A    between atoms: _174  and  _175
REMARK   73  A    between atoms: _175  and  _176
REMARK   74  A    between atoms: _180  and  _182
REMARK   75  A    between atoms: _182  and  _183
REMARK   76  A    between atoms: _182  and  _185
REMARK   77  A    between atoms: _185  and  _186
REMARK   78  A    between atoms: _191  and  _193
REMARK   79  A    between atoms: _193  and  _194
REMARK   80  A    between atoms: _193  and  _196
REMARK   81  A    between atoms: _196  and  _197
REMARK   82  A    between atoms: _200  and  _202
REMARK   83  A    between atoms: _202  and  _203
REMARK   84  A    between atoms: _202  and  _205
REMARK   85  A    between atoms: _205  and  _206
REMARK   86  A    between atoms: _209  and  _211
REMARK   87  A    between atoms: _211  and  _212
REMARK   88  A    between atoms: _211  and  _214
REMARK   89  A    between atoms: _214  and  _215
REMARK   90  A    between atoms: _218  and  _220
REMARK   91  A    between atoms: _220  and  _221
REMARK   92  A    between atoms: _220  and  _223
REMARK   93  A    between atoms: _225  and  _227
REMARK   94  A    between atoms: _227  and  _228
REMARK   95  A    between atoms: _227  and  _230
REMARK   96  A    between atoms: _230  and  _231
REMARK   97  A    between atoms: _231  and  _232
REMARK   98  A    between atoms: _232  and  _233
REMARK   99  A    between atoms: _242  and  _244
REMARK  100  A    between atoms: _244  and  _245
REMARK  101  A    between atoms: _244  and  _247
REMARK  102  A    between atoms: _247  and  _248
REMARK  103  A    between atoms: _248  and  _249
REMARK  104  A    between atoms: _249  and  _250
REMARK  105  A    between atoms: _250  and  _251
REMARK  106  A    between atoms: _255  and  _257
REMARK  107  A    between atoms: _257  and  _258
REMARK  108  A    between atoms: _257  and  _260
REMARK  109  A    between atoms: _260  and  _261
REMARK  110  A    between atoms: _264  and  _266
REMARK  111  A    between atoms: _266  and  _267
REMARK  112  A    between atoms: _270  and  _272
REMARK  113  A    between atoms: _272  and  _273
REMARK  114  A    between atoms: _272  and  _275
REMARK  115  A    between atoms: _278  and  _280
REMARK  116  A    between atoms: _280  and  _281
REMARK  117  A    between atoms: _280  and  _283
REMARK  118  A    between atoms: _283  and  _284
REMARK  119  A    between atoms: _289  and  _291
REMARK  120  A    between atoms: _291  and  _292
REMARK  121  A    between atoms: _291  and  _294
REMARK  122  A    between atoms: _294  and  _295
REMARK  123  A    between atoms: _301  and  _303
REMARK  124  A    between atoms: _303  and  _304
REMARK  125  A    between atoms: _303  and  _306
REMARK  126  A    between atoms: _306  and  _307
REMARK  127  A    between atoms: _310  and  _312
REMARK  128  A    between atoms: _312  and  _313
REMARK  129  A    between atoms: _316  and  _318
REMARK  130  A    between atoms: _318  and  _319
REMARK  131  A    between atoms: _318  and  _321
REMARK  132  A    between atoms: _321  and  _322
REMARK  133  A    between atoms: _324  and  _326
REMARK  134  A    between atoms: _326  and  _327
REMARK  135  A    between atoms: _326  and  _329
REMARK                            x       y       z     vdW  Elec       q    Type
REMARK                         _______ _______ _______ _____ _____    ______ ____
ROOT
ATOM      1  O   HOH     1      34.750  -8.389  22.040  0.00  0.00    +0.000 OA
ENDROOT
TORSDOF 0
REMARK  Name = ../refined-set-2016/4g8y/4g8y_pocket.pdb
REMARK  135 active torsions:
REMARK  status: ('A' for Active; 'I' for Inactive)
REMARK    1  A    between atoms: _1  and  _3
REMARK    2  A    between atoms: _3  and  _4
REMARK    3  A    between atoms: _7  and  _9
REMARK    4  A    between atoms: _9  and  _10
REMARK    5  A    between atoms: _9  and  _12
REMARK    6  A    between atoms: _12  and  _13
REMARK    7  A    between atoms: _13  and  _14
REMARK    8  A    between atoms: _14  and  _15
REMARK    9  A    between atoms: _15  and  _16
REMARK   10  A    between atoms: _20  and  _22
REMARK   11  A    between atoms: _22  and  _23
REMARK   12  A    between atoms: _22  and  _25
REMARK   13  A    between atoms: _25  and  _26
REMARK   14  A    between atoms: _32  and  _34
REMARK   15  A    between atoms: _34  and  _35
REMARK   16  A    between atoms: _34  and  _37
REMARK   17  A    between atoms: _37  and  _38
REMARK   18  A    between atoms: _38  and  _39
REMARK   19  A    between atoms: _39  and  _40
REMARK   20  A    between atoms: _49  and  _51
REMARK   21  A    between atoms: _51  and  _52
REMARK   22  A    between atoms: _51  and  _54
REMARK   23  A    between atoms: _54  and  _55
REMARK   24  A    between atoms: _55  and  _56
REMARK   25  A    between atoms: _61  and  _63
REMARK   26  A    between atoms: _63  and  _64
REMARK   27  A    between atoms: _63  and  _66
REMARK   28  A    between atoms: _66  and  _67
REMARK   29  A    between atoms: _72  and  _74
REMARK   30  A    between atoms: _74  and  _75
REMARK   31  A    between atoms: _74  and  _77
REMARK   32  A    between atoms: _77  and  _78
REMARK   33  A    between atoms: _78  and  _79
REMARK   34  A    between atoms: _81  and  _83
REMARK   35  A    between atoms: _83  and  _84
REMARK   36  A    between atoms: _83  and  _86
REMARK   37  A    between atoms: _86  and  _87
REMARK   38  A    between atoms: _90  and  _92
REMARK   39  A    between atoms: _92  and  _93
REMARK   40  A    between atoms: _92  and  _95
REMARK   41  A    between atoms: _95  and  _96
REMARK   42  A    between atoms: _96  and  _97
REMARK   43  A    between atoms: _97  and  _98
REMARK   44  A    between atoms: _107  and  _109
REMARK   45  A    between atoms: _109  and  _110
REMARK   46  A    between atoms: _109  and  _112
REMARK   47  A    between atoms: _112  and  _113
REMARK   48  A    between atoms: _113  and  _114
REMARK   49  A    between atoms: _114  and  _115
REMARK   50  A    between atoms: _115  and  _116
REMARK   51  A    between atoms: _121  and  _122
REMARK   52  A    between atoms: _127  and  _129
REMARK   53  A    between atoms: _129  and  _130
REMARK   54  A    between atoms: _129  and  _132
REMARK   55  A    between atoms: _135  and  _137
REMARK   56  A    between atoms: _137  and  _138
REMARK   57  A    between atoms: _137  and  _140
REMARK   58  A    between atoms: _140  and  _141
REMARK   59  A    between atoms: _146  and  _148
REMARK   60  A    between atoms: _148  and  _149
REMARK   61  A    between atoms: _148  and  _151
REMARK   62  A    between atoms: _151  and  _152
REMARK   63  A    between atoms: _155  and  _157
REMARK   64  A    between atoms: _157  and  _158
REMARK   65  A    between atoms: _157  and  _160
REMARK   66  A    between atoms: _160  and  _161
REMARK   67  A    between atoms: _167  and  _169
REMARK   68  A    between atoms: _169  and  _170
REMARK   69  A    between atoms: _169  and  _172
REMARK   70  A    between atoms: _172  and  _173
REMARK   71  A    between atoms: _173  and  _174
REMARK   72  A    between atoms: _174  and  _175
REMARK   73  A    between atoms: _175  and  _176
REMARK   74  A    between atoms: _180  and  _182
REMARK   75  A    between atoms: _182  and  _183
REMARK   76  A    between atoms: _182  and  _185
REMARK   77  A    between atoms: _185  and  _186
REMARK   78  A    between atoms: _191  and  _193
REMARK   79  A    between atoms: _193  and  _194
REMARK   80  A    between atoms: _193  and  _196
REMARK   81  A    between atoms: _196  and  _197
REMARK   82  A    between atoms: _200  and  _202
REMARK   83  A    between atoms: _202  and  _203
REMARK   84  A    between atoms: _202  and  _205
REMARK   85  A    between atoms: _205  and  _206
REMARK   86  A    between atoms: _209  and  _211
REMARK   87  A    between atoms: _211  and  _212
REMARK   88  A    between atoms: _211  and  _214
REMARK   89  A    between atoms: _214  and  _215
REMARK   90  A    between atoms: _218  and  _220
REMARK   91  A    between atoms: _220  and  _221
REMARK   92  A    between atoms: _220  and  _223
REMARK   93  A    between atoms: _225  and  _227
REMARK   94  A    between atoms: _227  and  _228
REMARK   95  A    between atoms: _227  and  _230
REMARK   96  A    between atoms: _230  and  _231
REMARK   97  A    between atoms: _231  and  _232
REMARK   98  A    between atoms: _232  and  _233
REMARK   99  A    between atoms: _242  and  _244
REMARK  100  A    between atoms: _244  and  _245
REMARK  101  A    between atoms: _244  and  _247
REMARK  102  A    between atoms: _247  and  _248
REMARK  103  A    between atoms: _248  and  _249
REMARK  104  A    between atoms: _249  and  _250
REMARK  105  A    between atoms: _250  and  _251
REMARK  106  A    between atoms: _255  and  _257
REMARK  107  A    between atoms: _257  and  _258
REMARK  108  A    between atoms: _257  and  _260
REMARK  109  A    between atoms: _260  and  _261
REMARK  110  A    between atoms: _264  and  _266
REMARK  111  A    between atoms: _266  and  _267
REMARK  112  A    between atoms: _270  and  _272
REMARK  113  A    between atoms: _272  and  _273
REMARK  114  A    between atoms: _272  and  _275
REMARK  115  A    between atoms: _278  and  _280
REMARK  116  A    between atoms: _280  and  _281
REMARK  117  A    between atoms: _280  and  _283
REMARK  118  A    between atoms: _283  and  _284
REMARK  119  A    between atoms: _289  and  _291
REMARK  120  A    between atoms: _291  and  _292
REMARK  121  A    between atoms: _291  and  _294
REMARK  122  A    between atoms: _294  and  _295
REMARK  123  A    between atoms: _301  and  _303
REMARK  124  A    between atoms: _303  and  _304
REMARK  125  A    between atoms: _303  and  _306
REMARK  126  A    between atoms: _306  and  _307
REMARK  127  A    between atoms: _310  and  _312
REMARK  128  A    between atoms: _312  and  _313
REMARK  129  A    between atoms: _316  and  _318
REMARK  130  A    between atoms: _318  and  _319
REMARK  131  A    between atoms: _318  and  _321
REMARK  132  A    between atoms: _321  and  _322
REMARK  133  A    between atoms: _324  and  _326
REMARK  134  A    between atoms: _326  and  _327
REMARK  135  A    between atoms: _326  and  _329
REMARK                            x       y       z     vdW  Elec       q    Type
REMARK                         _______ _______ _______ _____ _____    ______ ____
ROOT
ATOM      1  O   HOH     1      37.726   0.481  20.145  0.00  0.00    +0.000 OA
ENDROOT
TORSDOF 0
REMARK  Name = ../refined-set-2016/4g8y/4g8y_pocket.pdb
REMARK  135 active torsions:
REMARK  status: ('A' for Active; 'I' for Inactive)
REMARK    1  A    between atoms: _1  and  _3
REMARK    2  A    between atoms: _3  and  _4
REMARK    3  A    between atoms: _7  and  _9
REMARK    4  A    between atoms: _9  and  _10
REMARK    5  A    between atoms: _9  and  _12
REMARK    6  A    between atoms: _12  and  _13
REMARK    7  A    between atoms: _13  and  _14
REMARK    8  A    between atoms: _14  and  _15
REMARK    9  A    between atoms: _15  and  _16
REMARK   10  A    between atoms: _20  and  _22
REMARK   11  A    between atoms: _22  and  _23
REMARK   12  A    between atoms: _22  and  _25
REMARK   13  A    between atoms: _25  and  _26
REMARK   14  A    between atoms: _32  and  _34
REMARK   15  A    between atoms: _34  and  _35
REMARK   16  A    between atoms: _34  and  _37
REMARK   17  A    between atoms: _37  and  _38
REMARK   18  A    between atoms: _38  and  _39
REMARK   19  A    between atoms: _39  and  _40
REMARK   20  A    between atoms: _49  and  _51
REMARK   21  A    between atoms: _51  and  _52
REMARK   22  A    between atoms: _51  and  _54
REMARK   23  A    between atoms: _54  and  _55
REMARK   24  A    between atoms: _55  and  _56
REMARK   25  A    between atoms: _61  and  _63
REMARK   26  A    between atoms: _63  and  _64
REMARK   27  A    between atoms: _63  and  _66
REMARK   28  A    between atoms: _66  and  _67
REMARK   29  A    between atoms: _72  and  _74
REMARK   30  A    between atoms: _74  and  _75
REMARK   31  A    between atoms: _74  and  _77
REMARK   32  A    between atoms: _77  and  _78
REMARK   33  A    between atoms: _78  and  _79
REMARK   34  A    between atoms: _81  and  _83
REMARK   35  A    between atoms: _83  and  _84
REMARK   36  A    between atoms: _83  and  _86
REMARK   37  A    between atoms: _86  and  _87
REMARK   38  A    between atoms: _90  and  _92
REMARK   39  A    between atoms: _92  and  _93
REMARK   40  A    between atoms: _92  and  _95
REMARK   41  A    between atoms: _95  and  _96
REMARK   42  A    between atoms: _96  and  _97
REMARK   43  A    between atoms: _97  and  _98
REMARK   44  A    between atoms: _107  and  _109
REMARK   45  A    between atoms: _109  and  _110
REMARK   46  A    between atoms: _109  and  _112
REMARK   47  A    between atoms: _112  and  _113
REMARK   48  A    between atoms: _113  and  _114
REMARK   49  A    between atoms: _114  and  _115
REMARK   50  A    between atoms: _115  and  _116
REMARK   51  A    between atoms: _121  and  _122
REMARK   52  A    between atoms: _127  and  _129
REMARK   53  A    between atoms: _129  and  _130
REMARK   54  A    between atoms: _129  and  _132
REMARK   55  A    between atoms: _135  and  _137
REMARK   56  A    between atoms: _137  and  _138
REMARK   57  A    between atoms: _137  and  _140
REMARK   58  A    between atoms: _140  and  _141
REMARK   59  A    between atoms: _146  and  _148
REMARK   60  A    between atoms: _148  and  _149
REMARK   61  A    between atoms: _148  and  _151
REMARK   62  A    between atoms: _151  and  _152
REMARK   63  A    between atoms: _155  and  _157
REMARK   64  A    between atoms: _157  and  _158
REMARK   65  A    between atoms: _157  and  _160
REMARK   66  A    between atoms: _160  and  _161
REMARK   67  A    between atoms: _167  and  _169
REMARK   68  A    between atoms: _169  and  _170
REMARK   69  A    between atoms: _169  and  _172
REMARK   70  A    between atoms: _172  and  _173
REMARK   71  A    between atoms: _173  and  _174
REMARK   72  A    between atoms: _174  and  _175
REMARK   73  A    between atoms: _175  and  _176
REMARK   74  A    between atoms: _180  and  _182
REMARK   75  A    between atoms: _182  and  _183
REMARK   76  A    between atoms: _182  and  _185
REMARK   77  A    between atoms: _185  and  _186
REMARK   78  A    between atoms: _191  and  _193
REMARK   79  A    between atoms: _193  and  _194
REMARK   80  A    between atoms: _193  and  _196
REMARK   81  A    between atoms: _196  and  _197
REMARK   82  A    between atoms: _200  and  _202
REMARK   83  A    between atoms: _202  and  _203
REMARK   84  A    between atoms: _202  and  _205
REMARK   85  A    between atoms: _205  and  _206
REMARK   86  A    between atoms: _209  and  _211
REMARK   87  A    between atoms: _211  and  _212
REMARK   88  A    between atoms: _211  and  _214
REMARK   89  A    between atoms: _214  and  _215
REMARK   90  A    between atoms: _218  and  _220
REMARK   91  A    between atoms: _220  and  _221
REMARK   92  A    between atoms: _220  and  _223
REMARK   93  A    between atoms: _225  and  _227
REMARK   94  A    between atoms: _227  and  _228
REMARK   95  A    between atoms: _227  and  _230
REMARK   96  A    between atoms: _230  and  _231
REMARK   97  A    between atoms: _231  and  _232
REMARK   98  A    between atoms: _232  and  _233
REMARK   99  A    between atoms: _242  and  _244
REMARK  100  A    between atoms: _244  and  _245
REMARK  101  A    between atoms: _244  and  _247
REMARK  102  A    between atoms: _247  and  _248
REMARK  103  A    between atoms: _248  and  _249
REMARK  104  A    between atoms: _249  and  _250
REMARK  105  A    between atoms: _250  and  _251
REMARK  106  A    between atoms: _255  and  _257
REMARK  107  A    between atoms: _257  and  _258
REMARK  108  A    between atoms: _257  and  _260
REMARK  109  A    between atoms: _260  and  _261
REMARK  110  A    between atoms: _264  and  _266
REMARK  111  A    between atoms: _266  and  _267
REMARK  112  A    between atoms: _270  and  _272
REMARK  113  A    between atoms: _272  and  _273
REMARK  114  A    between atoms: _272  and  _275
REMARK  115  A    between atoms: _278  and  _280
REMARK  116  A    between atoms: _280  and  _281
REMARK  117  A    between atoms: _280  and  _283
REMARK  118  A    between atoms: _283  and  _284
REMARK  119  A    between atoms: _289  and  _291
REMARK  120  A    between atoms: _291  and  _292
REMARK  121  A    between atoms: _291  and  _294
REMARK  122  A    between atoms: _294  and  _295
REMARK  123  A    between atoms: _301  and  _303
REMARK  124  A    between atoms: _303  and  _304
REMARK  125  A    between atoms: _303  and  _306
REMARK  126  A    between atoms: _306  and  _307
REMARK  127  A    between atoms: _310  and  _312
REMARK  128  A    between atoms: _312  and  _313
REMARK  129  A    between atoms: _316  and  _318
REMARK  130  A    between atoms: _318  and  _319
REMARK  131  A    between atoms: _318  and  _321
REMARK  132  A    between atoms: _321  and  _322
REMARK  133  A    between atoms: _324  and  _326
REMARK  134  A    between atoms: _326  and  _327
REMARK  135  A    between atoms: _326  and  _329
REMARK                            x       y       z     vdW  Elec       q    Type
REMARK                         _______ _______ _______ _____ _____    ______ ____
ROOT
ATOM      1  O   HOH     1      41.296   1.317  26.417  0.00  0.00    +0.000 OA
ENDROOT
TORSDOF 0
REMARK  Name = ../refined-set-2016/4g8y/4g8y_pocket.pdb
REMARK  135 active torsions:
REMARK  status: ('A' for Active; 'I' for Inactive)
REMARK    1  A    between atoms: _1  and  _3
REMARK    2  A    between atoms: _3  and  _4
REMARK    3  A    between atoms: _7  and  _9
REMARK    4  A    between atoms: _9  and  _10
REMARK    5  A    between atoms: _9  and  _12
REMARK    6  A    between atoms: _12  and  _13
REMARK    7  A    between atoms: _13  and  _14
REMARK    8  A    between atoms: _14  and  _15
REMARK    9  A    between atoms: _15  and  _16
REMARK   10  A    between atoms: _20  and  _22
REMARK   11  A    between atoms: _22  and  _23
REMARK   12  A    between atoms: _22  and  _25
REMARK   13  A    between atoms: _25  and  _26
REMARK   14  A    between atoms: _32  and  _34
REMARK   15  A    between atoms: _34  and  _35
REMARK   16  A    between atoms: _34  and  _37
REMARK   17  A    between atoms: _37  and  _38
REMARK   18  A    between atoms: _38  and  _39
REMARK   19  A    between atoms: _39  and  _40
REMARK   20  A    between atoms: _49  and  _51
REMARK   21  A    between atoms: _51  and  _52
REMARK   22  A    between atoms: _51  and  _54
REMARK   23  A    between atoms: _54  and  _55
REMARK   24  A    between atoms: _55  and  _56
REMARK   25  A    between atoms: _61  and  _63
REMARK   26  A    between atoms: _63  and  _64
REMARK   27  A    between atoms: _63  and  _66
REMARK   28  A    between atoms: _66  and  _67
REMARK   29  A    between atoms: _72  and  _74
REMARK   30  A    between atoms: _74  and  _75
REMARK   31  A    between atoms: _74  and  _77
REMARK   32  A    between atoms: _77  and  _78
REMARK   33  A    between atoms: _78  and  _79
REMARK   34  A    between atoms: _81  and  _83
REMARK   35  A    between atoms: _83  and  _84
REMARK   36  A    between atoms: _83  and  _86
REMARK   37  A    between atoms: _86  and  _87
REMARK   38  A    between atoms: _90  and  _92
REMARK   39  A    between atoms: _92  and  _93
REMARK   40  A    between atoms: _92  and  _95
REMARK   41  A    between atoms: _95  and  _96
REMARK   42  A    between atoms: _96  and  _97
REMARK   43  A    between atoms: _97  and  _98
REMARK   44  A    between atoms: _107  and  _109
REMARK   45  A    between atoms: _109  and  _110
REMARK   46  A    between atoms: _109  and  _112
REMARK   47  A    between atoms: _112  and  _113
REMARK   48  A    between atoms: _113  and  _114
REMARK   49  A    between atoms: _114  and  _115
REMARK   50  A    between atoms: _115  and  _116
REMARK   51  A    between atoms: _121  and  _122
REMARK   52  A    between atoms: _127  and  _129
REMARK   53  A    between atoms: _129  and  _130
REMARK   54  A    between atoms: _129  and  _132
REMARK   55  A    between atoms: _135  and  _137
REMARK   56  A    between atoms: _137  and  _138
REMARK   57  A    between atoms: _137  and  _140
REMARK   58  A    between atoms: _140  and  _141
REMARK   59  A    between atoms: _146  and  _148
REMARK   60  A    between atoms: _148  and  _149
REMARK   61  A    between atoms: _148  and  _151
REMARK   62  A    between atoms: _151  and  _152
REMARK   63  A    between atoms: _155  and  _157
REMARK   64  A    between atoms: _157  and  _158
REMARK   65  A    between atoms: _157  and  _160
REMARK   66  A    between atoms: _160  and  _161
REMARK   67  A    between atoms: _167  and  _169
REMARK   68  A    between atoms: _169  and  _170
REMARK   69  A    between atoms: _169  and  _172
REMARK   70  A    between atoms: _172  and  _173
REMARK   71  A    between atoms: _173  and  _174
REMARK   72  A    between atoms: _174  and  _175
REMARK   73  A    between atoms: _175  and  _176
REMARK   74  A    between atoms: _180  and  _182
REMARK   75  A    between atoms: _182  and  _183
REMARK   76  A    between atoms: _182  and  _185
REMARK   77  A    between atoms: _185  and  _186
REMARK   78  A    between atoms: _191  and  _193
REMARK   79  A    between atoms: _193  and  _194
REMARK   80  A    between atoms: _193  and  _196
REMARK   81  A    between atoms: _196  and  _197
REMARK   82  A    between atoms: _200  and  _202
REMARK   83  A    between atoms: _202  and  _203
REMARK   84  A    between atoms: _202  and  _205
REMARK   85  A    between atoms: _205  and  _206
REMARK   86  A    between atoms: _209  and  _211
REMARK   87  A    between atoms: _211  and  _212
REMARK   88  A    between atoms: _211  and  _214
REMARK   89  A    between atoms: _214  and  _215
REMARK   90  A    between atoms: _218  and  _220
REMARK   91  A    between atoms: _220  and  _221
REMARK   92  A    between atoms: _220  and  _223
REMARK   93  A    between atoms: _225  and  _227
REMARK   94  A    between atoms: _227  and  _228
REMARK   95  A    between atoms: _227  and  _230
REMARK   96  A    between atoms: _230  and  _231
REMARK   97  A    between atoms: _231  and  _232
REMARK   98  A    between atoms: _232  and  _233
REMARK   99  A    between atoms: _242  and  _244
REMARK  100  A    between atoms: _244  and  _245
REMARK  101  A    between atoms: _244  and  _247
REMARK  102  A    between atoms: _247  and  _248
REMARK  103  A    between atoms: _248  and  _249
REMARK  104  A    between atoms: _249  and  _250
REMARK  105  A    between atoms: _250  and  _251
REMARK  106  A    between atoms: _255  and  _257
REMARK  107  A    between atoms: _257  and  _258
REMARK  108  A    between atoms: _257  and  _260
REMARK  109  A    between atoms: _260  and  _261
REMARK  110  A    between atoms: _264  and  _266
REMARK  111  A    between atoms: _266  and  _267
REMARK  112  A    between atoms: _270  and  _272
REMARK  113  A    between atoms: _272  and  _273
REMARK  114  A    between atoms: _272  and  _275
REMARK  115  A    between atoms: _278  and  _280
REMARK  116  A    between atoms: _280  and  _281
REMARK  117  A    between atoms: _280  and  _283
REMARK  118  A    between atoms: _283  and  _284
REMARK  119  A    between atoms: _289  and  _291
REMARK  120  A    between atoms: _291  and  _292
REMARK  121  A    between atoms: _291  and  _294
REMARK  122  A    between atoms: _294  and  _295
REMARK  123  A    between atoms: _301  and  _303
REMARK  124  A    between atoms: _303  and  _304
REMARK  125  A    between atoms: _303  and  _306
REMARK  126  A    between atoms: _306  and  _307
REMARK  127  A    between atoms: _310  and  _312
REMARK  128  A    between atoms: _312  and  _313
REMARK  129  A    between atoms: _316  and  _318
REMARK  130  A    between atoms: _318  and  _319
REMARK  131  A    between atoms: _318  and  _321
REMARK  132  A    between atoms: _321  and  _322
REMARK  133  A    between atoms: _324  and  _326
REMARK  134  A    between atoms: _326  and  _327
REMARK  135  A    between atoms: _326  and  _329
REMARK                            x       y       z     vdW  Elec       q    Type
REMARK                         _______ _______ _______ _____ _____    ______ ____
ROOT
ATOM      1  O   HOH     1      38.430 -12.934  25.866  0.00  0.00    +0.000 OA
ENDROOT
TORSDOF 0
REMARK  Name = ../refined-set-2016/4g8y/4g8y_pocket.pdb
REMARK  135 active torsions:
REMARK  status: ('A' for Active; 'I' for Inactive)
REMARK    1  A    between atoms: _1  and  _3
REMARK    2  A    between atoms: _3  and  _4
REMARK    3  A    between atoms: _7  and  _9
REMARK    4  A    between atoms: _9  and  _10
REMARK    5  A    between atoms: _9  and  _12
REMARK    6  A    between atoms: _12  and  _13
REMARK    7  A    between atoms: _13  and  _14
REMARK    8  A    between atoms: _14  and  _15
REMARK    9  A    between atoms: _15  and  _16
REMARK   10  A    between atoms: _20  and  _22
REMARK   11  A    between atoms: _22  and  _23
REMARK   12  A    between atoms: _22  and  _25
REMARK   13  A    between atoms: _25  and  _26
REMARK   14  A    between atoms: _32  and  _34
REMARK   15  A    between atoms: _34  and  _35
REMARK   16  A    between atoms: _34  and  _37
REMARK   17  A    between atoms: _37  and  _38
REMARK   18  A    between atoms: _38  and  _39
REMARK   19  A    between atoms: _39  and  _40
REMARK   20  A    between atoms: _49  and  _51
REMARK   21  A    between atoms: _51  and  _52
REMARK   22  A    between atoms: _51  and  _54
REMARK   23  A    between atoms: _54  and  _55
REMARK   24  A    between atoms: _55  and  _56
REMARK   25  A    between atoms: _61  and  _63
REMARK   26  A    between atoms: _63  and  _64
REMARK   27  A    between atoms: _63  and  _66
REMARK   28  A    between atoms: _66  and  _67
REMARK   29  A    between atoms: _72  and  _74
REMARK   30  A    between atoms: _74  and  _75
REMARK   31  A    between atoms: _74  and  _77
REMARK   32  A    between atoms: _77  and  _78
REMARK   33  A    between atoms: _78  and  _79
REMARK   34  A    between atoms: _81  and  _83
REMARK   35  A    between atoms: _83  and  _84
REMARK   36  A    between atoms: _83  and  _86
REMARK   37  A    between atoms: _86  and  _87
REMARK   38  A    between atoms: _90  and  _92
REMARK   39  A    between atoms: _92  and  _93
REMARK   40  A    between atoms: _92  and  _95
REMARK   41  A    between atoms: _95  and  _96
REMARK   42  A    between atoms: _96  and  _97
REMARK   43  A    between atoms: _97  and  _98
REMARK   44  A    between atoms: _107  and  _109
REMARK   45  A    between atoms: _109  and  _110
REMARK   46  A    between atoms: _109  and  _112
REMARK   47  A    between atoms: _112  and  _113
REMARK   48  A    between atoms: _113  and  _114
REMARK   49  A    between atoms: _114  and  _115
REMARK   50  A    between atoms: _115  and  _116
REMARK   51  A    between atoms: _121  and  _122
REMARK   52  A    between atoms: _127  and  _129
REMARK   53  A    between atoms: _129  and  _130
REMARK   54  A    between atoms: _129  and  _132
REMARK   55  A    between atoms: _135  and  _137
REMARK   56  A    between atoms: _137  and  _138
REMARK   57  A    between atoms: _137  and  _140
REMARK   58  A    between atoms: _140  and  _141
REMARK   59  A    between atoms: _146  and  _148
REMARK   60  A    between atoms: _148  and  _149
REMARK   61  A    between atoms: _148  and  _151
REMARK   62  A    between atoms: _151  and  _152
REMARK   63  A    between atoms: _155  and  _157
REMARK   64  A    between atoms: _157  and  _158
REMARK   65  A    between atoms: _157  and  _160
REMARK   66  A    between atoms: _160  and  _161
REMARK   67  A    between atoms: _167  and  _169
REMARK   68  A    between atoms: _169  and  _170
REMARK   69  A    between atoms: _169  and  _172
REMARK   70  A    between atoms: _172  and  _173
REMARK   71  A    between atoms: _173  and  _174
REMARK   72  A    between atoms: _174  and  _175
REMARK   73  A    between atoms: _175  and  _176
REMARK   74  A    between atoms: _180  and  _182
REMARK   75  A    between atoms: _182  and  _183
REMARK   76  A    between atoms: _182  and  _185
REMARK   77  A    between atoms: _185  and  _186
REMARK   78  A    between atoms: _191  and  _193
REMARK   79  A    between atoms: _193  and  _194
REMARK   80  A    between atoms: _193  and  _196
REMARK   81  A    between atoms: _196  and  _197
REMARK   82  A    between atoms: _200  and  _202
REMARK   83  A    between atoms: _202  and  _203
REMARK   84  A    between atoms: _202  and  _205
REMARK   85  A    between atoms: _205  and  _206
REMARK   86  A    between atoms: _209  and  _211
REMARK   87  A    between atoms: _211  and  _212
REMARK   88  A    between atoms: _211  and  _214
REMARK   89  A    between atoms: _214  and  _215
REMARK   90  A    between atoms: _218  and  _220
REMARK   91  A    between atoms: _220  and  _221
REMARK   92  A    between atoms: _220  and  _223
REMARK   93  A    between atoms: _225  and  _227
REMARK   94  A    between atoms: _227  and  _228
REMARK   95  A    between atoms: _227  and  _230
REMARK   96  A    between atoms: _230  and  _231
REMARK   97  A    between atoms: _231  and  _232
REMARK   98  A    between atoms: _232  and  _233
REMARK   99  A    between atoms: _242  and  _244
REMARK  100  A    between atoms: _244  and  _245
REMARK  101  A    between atoms: _244  and  _247
REMARK  102  A    between atoms: _247  and  _248
REMARK  103  A    between atoms: _248  and  _249
REMARK  104  A    between atoms: _249  and  _250
REMARK  105  A    between atoms: _250  and  _251
REMARK  106  A    between atoms: _255  and  _257
REMARK  107  A    between atoms: _257  and  _258
REMARK  108  A    between atoms: _257  and  _260
REMARK  109  A    between atoms: _260  and  _261
REMARK  110  A    between atoms: _264  and  _266
REMARK  111  A    between atoms: _266  and  _267
REMARK  112  A    between atoms: _270  and  _272
REMARK  113  A    between atoms: _272  and  _273
REMARK  114  A    between atoms: _272  and  _275
REMARK  115  A    between atoms: _278  and  _280
REMARK  116  A    between atoms: _280  and  _281
REMARK  117  A    between atoms: _280  and  _283
REMARK  118  A    between atoms: _283  and  _284
REMARK  119  A    between atoms: _289  and  _291
REMARK  120  A    between atoms: _291  and  _292
REMARK  121  A    between atoms: _291  and  _294
REMARK  122  A    between atoms: _294  and  _295
REMARK  123  A    between atoms: _301  and  _303
REMARK  124  A    between atoms: _303  and  _304
REMARK  125  A    between atoms: _303  and  _306
REMARK  126  A    between atoms: _306  and  _307
REMARK  127  A    between atoms: _310  and  _312
REMARK  128  A    between atoms: _312  and  _313
REMARK  129  A    between atoms: _316  and  _318
REMARK  130  A    between atoms: _318  and  _319
REMARK  131  A    between atoms: _318  and  _321
REMARK  132  A    between atoms: _321  and  _322
REMARK  133  A    between atoms: _324  and  _326
REMARK  134  A    between atoms: _326  and  _327
REMARK  135  A    between atoms: _326  and  _329
REMARK                            x       y       z     vdW  Elec       q    Type
REMARK                         _______ _______ _______ _____ _____    ______ ____
ROOT
ATOM      1  O   HOH     1      36.165  -3.283  12.931  0.00  0.00    +0.000 OA
ENDROOT
TORSDOF 0
REMARK  Name = ../refined-set-2016/4g8y/4g8y_pocket.pdb
REMARK  135 active torsions:
REMARK  status: ('A' for Active; 'I' for Inactive)
REMARK    1  A    between atoms: _1  and  _3
REMARK    2  A    between atoms: _3  and  _4
REMARK    3  A    between atoms: _7  and  _9
REMARK    4  A    between atoms: _9  and  _10
REMARK    5  A    between atoms: _9  and  _12
REMARK    6  A    between atoms: _12  and  _13
REMARK    7  A    between atoms: _13  and  _14
REMARK    8  A    between atoms: _14  and  _15
REMARK    9  A    between atoms: _15  and  _16
REMARK   10  A    between atoms: _20  and  _22
REMARK   11  A    between atoms: _22  and  _23
REMARK   12  A    between atoms: _22  and  _25
REMARK   13  A    between atoms: _25  and  _26
REMARK   14  A    between atoms: _32  and  _34
REMARK   15  A    between atoms: _34  and  _35
REMARK   16  A    between atoms: _34  and  _37
REMARK   17  A    between atoms: _37  and  _38
REMARK   18  A    between atoms: _38  and  _39
REMARK   19  A    between atoms: _39  and  _40
REMARK   20  A    between atoms: _49  and  _51
REMARK   21  A    between atoms: _51  and  _52
REMARK   22  A    between atoms: _51  and  _54
REMARK   23  A    between atoms: _54  and  _55
REMARK   24  A    between atoms: _55  and  _56
REMARK   25  A    between atoms: _61  and  _63
REMARK   26  A    between atoms: _63  and  _64
REMARK   27  A    between atoms: _63  and  _66
REMARK   28  A    between atoms: _66  and  _67
REMARK   29  A    between atoms: _72  and  _74
REMARK   30  A    between atoms: _74  and  _75
REMARK   31  A    between atoms: _74  and  _77
REMARK   32  A    between atoms: _77  and  _78
REMARK   33  A    between atoms: _78  and  _79
REMARK   34  A    between atoms: _81  and  _83
REMARK   35  A    between atoms: _83  and  _84
REMARK   36  A    between atoms: _83  and  _86
REMARK   37  A    between atoms: _86  and  _87
REMARK   38  A    between atoms: _90  and  _92
REMARK   39  A    between atoms: _92  and  _93
REMARK   40  A    between atoms: _92  and  _95
REMARK   41  A    between atoms: _95  and  _96
REMARK   42  A    between atoms: _96  and  _97
REMARK   43  A    between atoms: _97  and  _98
REMARK   44  A    between atoms: _107  and  _109
REMARK   45  A    between atoms: _109  and  _110
REMARK   46  A    between atoms: _109  and  _112
REMARK   47  A    between atoms: _112  and  _113
REMARK   48  A    between atoms: _113  and  _114
REMARK   49  A    between atoms: _114  and  _115
REMARK   50  A    between atoms: _115  and  _116
REMARK   51  A    between atoms: _121  and  _122
REMARK   52  A    between atoms: _127  and  _129
REMARK   53  A    between atoms: _129  and  _130
REMARK   54  A    between atoms: _129  and  _132
REMARK   55  A    between atoms: _135  and  _137
REMARK   56  A    between atoms: _137  and  _138
REMARK   57  A    between atoms: _137  and  _140
REMARK   58  A    between atoms: _140  and  _141
REMARK   59  A    between atoms: _146  and  _148
REMARK   60  A    between atoms: _148  and  _149
REMARK   61  A    between atoms: _148  and  _151
REMARK   62  A    between atoms: _151  and  _152
REMARK   63  A    between atoms: _155  and  _157
REMARK   64  A    between atoms: _157  and  _158
REMARK   65  A    between atoms: _157  and  _160
REMARK   66  A    between atoms: _160  and  _161
REMARK   67  A    between atoms: _167  and  _169
REMARK   68  A    between atoms: _169  and  _170
REMARK   69  A    between atoms: _169  and  _172
REMARK   70  A    between atoms: _172  and  _173
REMARK   71  A    between atoms: _173  and  _174
REMARK   72  A    between atoms: _174  and  _175
REMARK   73  A    between atoms: _175  and  _176
REMARK   74  A    between atoms: _180  and  _182
REMARK   75  A    between atoms: _182  and  _183
REMARK   76  A    between atoms: _182  and  _185
REMARK   77  A    between atoms: _185  and  _186
REMARK   78  A    between atoms: _191  and  _193
REMARK   79  A    between atoms: _193  and  _194
REMARK   80  A    between atoms: _193  and  _196
REMARK   81  A    between atoms: _196  and  _197
REMARK   82  A    between atoms: _200  and  _202
REMARK   83  A    between atoms: _202  and  _203
REMARK   84  A    between atoms: _202  and  _205
REMARK   85  A    between atoms: _205  and  _206
REMARK   86  A    between atoms: _209  and  _211
REMARK   87  A    between atoms: _211  and  _212
REMARK   88  A    between atoms: _211  and  _214
REMARK   89  A    between atoms: _214  and  _215
REMARK   90  A    between atoms: _218  and  _220
REMARK   91  A    between atoms: _220  and  _221
REMARK   92  A    between atoms: _220  and  _223
REMARK   93  A    between atoms: _225  and  _227
REMARK   94  A    between atoms: _227  and  _228
REMARK   95  A    between atoms: _227  and  _230
REMARK   96  A    between atoms: _230  and  _231
REMARK   97  A    between atoms: _231  and  _232
REMARK   98  A    between atoms: _232  and  _233
REMARK   99  A    between atoms: _242  and  _244
REMARK  100  A    between atoms: _244  and  _245
REMARK  101  A    between atoms: _244  and  _247
REMARK  102  A    between atoms: _247  and  _248
REMARK  103  A    between atoms: _248  and  _249
REMARK  104  A    between atoms: _249  and  _250
REMARK  105  A    between atoms: _250  and  _251
REMARK  106  A    between atoms: _255  and  _257
REMARK  107  A    between atoms: _257  and  _258
REMARK  108  A    between atoms: _257  and  _260
REMARK  109  A    between atoms: _260  and  _261
REMARK  110  A    between atoms: _264  and  _266
REMARK  111  A    between atoms: _266  and  _267
REMARK  112  A    between atoms: _270  and  _272
REMARK  113  A    between atoms: _272  and  _273
REMARK  114  A    between atoms: _272  and  _275
REMARK  115  A    between atoms: _278  and  _280
REMARK  116  A    between atoms: _280  and  _281
REMARK  117  A    between atoms: _280  and  _283
REMARK  118  A    between atoms: _283  and  _284
REMARK  119  A    between atoms: _289  and  _291
REMARK  120  A    between atoms: _291  and  _292
REMARK  121  A    between atoms: _291  and  _294
REMARK  122  A    between atoms: _294  and  _295
REMARK  123  A    between atoms: _301  and  _303
REMARK  124  A    between atoms: _303  and  _304
REMARK  125  A    between atoms: _303  and  _306
REMARK  126  A    between atoms: _306  and  _307
REMARK  127  A    between atoms: _310  and  _312
REMARK  128  A    between atoms: _312  and  _313
REMARK  129  A    between atoms: _316  and  _318
REMARK  130  A    between atoms: _318  and  _319
REMARK  131  A    between atoms: _318  and  _321
REMARK  132  A    between atoms: _321  and  _322
REMARK  133  A    between atoms: _324  and  _326
REMARK  134  A    between atoms: _326  and  _327
REMARK  135  A    between atoms: _326  and  _329
REMARK                            x       y       z     vdW  Elec       q    Type
REMARK                         _______ _______ _______ _____ _____    ______ ____
ROOT
ATOM      1  O   HOH     1      32.469   7.092  24.929  0.00  0.00    +0.000 OA
ENDROOT
TORSDOF 0
REMARK  Name = ../refined-set-2016/4g8y/4g8y_pocket.pdb
REMARK  135 active torsions:
REMARK  status: ('A' for Active; 'I' for Inactive)
REMARK    1  A    between atoms: _1  and  _3
REMARK    2  A    between atoms: _3  and  _4
REMARK    3  A    between atoms: _7  and  _9
REMARK    4  A    between atoms: _9  and  _10
REMARK    5  A    between atoms: _9  and  _12
REMARK    6  A    between atoms: _12  and  _13
REMARK    7  A    between atoms: _13  and  _14
REMARK    8  A    between atoms: _14  and  _15
REMARK    9  A    between atoms: _15  and  _16
REMARK   10  A    between atoms: _20  and  _22
REMARK   11  A    between atoms: _22  and  _23
REMARK   12  A    between atoms: _22  and  _25
REMARK   13  A    between atoms: _25  and  _26
REMARK   14  A    between atoms: _32  and  _34
REMARK   15  A    between atoms: _34  and  _35
REMARK   16  A    between atoms: _34  and  _37
REMARK   17  A    between atoms: _37  and  _38
REMARK   18  A    between atoms: _38  and  _39
REMARK   19  A    between atoms: _39  and  _40
REMARK   20  A    between atoms: _49  and  _51
REMARK   21  A    between atoms: _51  and  _52
REMARK   22  A    between atoms: _51  and  _54
REMARK   23  A    between atoms: _54  and  _55
REMARK   24  A    between atoms: _55  and  _56
REMARK   25  A    between atoms: _61  and  _63
REMARK   26  A    between atoms: _63  and  _64
REMARK   27  A    between atoms: _63  and  _66
REMARK   28  A    between atoms: _66  and  _67
REMARK   29  A    between atoms: _72  and  _74
REMARK   30  A    between atoms: _74  and  _75
REMARK   31  A    between atoms: _74  and  _77
REMARK   32  A    between atoms: _77  and  _78
REMARK   33  A    between atoms: _78  and  _79
REMARK   34  A    between atoms: _81  and  _83
REMARK   35  A    between atoms: _83  and  _84
REMARK   36  A    between atoms: _83  and  _86
REMARK   37  A    between atoms: _86  and  _87
REMARK   38  A    between atoms: _90  and  _92
REMARK   39  A    between atoms: _92  and  _93
REMARK   40  A    between atoms: _92  and  _95
REMARK   41  A    between atoms: _95  and  _96
REMARK   42  A    between atoms: _96  and  _97
REMARK   43  A    between atoms: _97  and  _98
REMARK   44  A    between atoms: _107  and  _109
REMARK   45  A    between atoms: _109  and  _110
REMARK   46  A    between atoms: _109  and  _112
REMARK   47  A    between atoms: _112  and  _113
REMARK   48  A    between atoms: _113  and  _114
REMARK   49  A    between atoms: _114  and  _115
REMARK   50  A    between atoms: _115  and  _116
REMARK   51  A    between atoms: _121  and  _122
REMARK   52  A    between atoms: _127  and  _129
REMARK   53  A    between atoms: _129  and  _130
REMARK   54  A    between atoms: _129  and  _132
REMARK   55  A    between atoms: _135  and  _137
REMARK   56  A    between atoms: _137  and  _138
REMARK   57  A    between atoms: _137  and  _140
REMARK   58  A    between atoms: _140  and  _141
REMARK   59  A    between atoms: _146  and  _148
REMARK   60  A    between atoms: _148  and  _149
REMARK   61  A    between atoms: _148  and  _151
REMARK   62  A    between atoms: _151  and  _152
REMARK   63  A    between atoms: _155  and  _157
REMARK   64  A    between atoms: _157  and  _158
REMARK   65  A    between atoms: _157  and  _160
REMARK   66  A    between atoms: _160  and  _161
REMARK   67  A    between atoms: _167  and  _169
REMARK   68  A    between atoms: _169  and  _170
REMARK   69  A    between atoms: _169  and  _172
REMARK   70  A    between atoms: _172  and  _173
REMARK   71  A    between atoms: _173  and  _174
REMARK   72  A    between atoms: _174  and  _175
REMARK   73  A    between atoms: _175  and  _176
REMARK   74  A    between atoms: _180  and  _182
REMARK   75  A    between atoms: _182  and  _183
REMARK   76  A    between atoms: _182  and  _185
REMARK   77  A    between atoms: _185  and  _186
REMARK   78  A    between atoms: _191  and  _193
REMARK   79  A    between atoms: _193  and  _194
REMARK   80  A    between atoms: _193  and  _196
REMARK   81  A    between atoms: _196  and  _197
REMARK   82  A    between atoms: _200  and  _202
REMARK   83  A    between atoms: _202  and  _203
REMARK   84  A    between atoms: _202  and  _205
REMARK   85  A    between atoms: _205  and  _206
REMARK   86  A    between atoms: _209  and  _211
REMARK   87  A    between atoms: _211  and  _212
REMARK   88  A    between atoms: _211  and  _214
REMARK   89  A    between atoms: _214  and  _215
REMARK   90  A    between atoms: _218  and  _220
REMARK   91  A    between atoms: _220  and  _221
REMARK   92  A    between atoms: _220  and  _223
REMARK   93  A    between atoms: _225  and  _227
REMARK   94  A    between atoms: _227  and  _228
REMARK   95  A    between atoms: _227  and  _230
REMARK   96  A    between atoms: _230  and  _231
REMARK   97  A    between atoms: _231  and  _232
REMARK   98  A    between atoms: _232  and  _233
REMARK   99  A    between atoms: _242  and  _244
REMARK  100  A    between atoms: _244  and  _245
REMARK  101  A    between atoms: _244  and  _247
REMARK  102  A    between atoms: _247  and  _248
REMARK  103  A    between atoms: _248  and  _249
REMARK  104  A    between atoms: _249  and  _250
REMARK  105  A    between atoms: _250  and  _251
REMARK  106  A    between atoms: _255  and  _257
REMARK  107  A    between atoms: _257  and  _258
REMARK  108  A    between atoms: _257  and  _260
REMARK  109  A    between atoms: _260  and  _261
REMARK  110  A    between atoms: _264  and  _266
REMARK  111  A    between atoms: _266  and  _267
REMARK  112  A    between atoms: _270  and  _272
REMARK  113  A    between atoms: _272  and  _273
REMARK  114  A    between atoms: _272  and  _275
REMARK  115  A    between atoms: _278  and  _280
REMARK  116  A    between atoms: _280  and  _281
REMARK  117  A    between atoms: _280  and  _283
REMARK  118  A    between atoms: _283  and  _284
REMARK  119  A    between atoms: _289  and  _291
REMARK  120  A    between atoms: _291  and  _292
REMARK  121  A    between atoms: _291  and  _294
REMARK  122  A    between atoms: _294  and  _295
REMARK  123  A    between atoms: _301  and  _303
REMARK  124  A    between atoms: _303  and  _304
REMARK  125  A    between atoms: _303  and  _306
REMARK  126  A    between atoms: _306  and  _307
REMARK  127  A    between atoms: _310  and  _312
REMARK  128  A    between atoms: _312  and  _313
REMARK  129  A    between atoms: _316  and  _318
REMARK  130  A    between atoms: _318  and  _319
REMARK  131  A    between atoms: _318  and  _321
REMARK  132  A    between atoms: _321  and  _322
REMARK  133  A    between atoms: _324  and  _326
REMARK  134  A    between atoms: _326  and  _327
REMARK  135  A    between atoms: _326  and  _329
REMARK                            x       y       z     vdW  Elec       q    Type
REMARK                         _______ _______ _______ _____ _____    ______ ____
ROOT
ATOM      1  O   HOH     1      40.096   1.099  16.419  0.00  0.00    +0.000 OA
ENDROOT
TORSDOF 0
REMARK  Name = ../refined-set-2016/4g8y/4g8y_pocket.pdb
REMARK  135 active torsions:
REMARK  status: ('A' for Active; 'I' for Inactive)
REMARK    1  A    between atoms: _1  and  _3
REMARK    2  A    between atoms: _3  and  _4
REMARK    3  A    between atoms: _7  and  _9
REMARK    4  A    between atoms: _9  and  _10
REMARK    5  A    between atoms: _9  and  _12
REMARK    6  A    between atoms: _12  and  _13
REMARK    7  A    between atoms: _13  and  _14
REMARK    8  A    between atoms: _14  and  _15
REMARK    9  A    between atoms: _15  and  _16
REMARK   10  A    between atoms: _20  and  _22
REMARK   11  A    between atoms: _22  and  _23
REMARK   12  A    between atoms: _22  and  _25
REMARK   13  A    between atoms: _25  and  _26
REMARK   14  A    between atoms: _32  and  _34
REMARK   15  A    between atoms: _34  and  _35
REMARK   16  A    between atoms: _34  and  _37
REMARK   17  A    between atoms: _37  and  _38
REMARK   18  A    between atoms: _38  and  _39
REMARK   19  A    between atoms: _39  and  _40
REMARK   20  A    between atoms: _49  and  _51
REMARK   21  A    between atoms: _51  and  _52
REMARK   22  A    between atoms: _51  and  _54
REMARK   23  A    between atoms: _54  and  _55
REMARK   24  A    between atoms: _55  and  _56
REMARK   25  A    between atoms: _61  and  _63
REMARK   26  A    between atoms: _63  and  _64
REMARK   27  A    between atoms: _63  and  _66
REMARK   28  A    between atoms: _66  and  _67
REMARK   29  A    between atoms: _72  and  _74
REMARK   30  A    between atoms: _74  and  _75
REMARK   31  A    between atoms: _74  and  _77
REMARK   32  A    between atoms: _77  and  _78
REMARK   33  A    between atoms: _78  and  _79
REMARK   34  A    between atoms: _81  and  _83
REMARK   35  A    between atoms: _83  and  _84
REMARK   36  A    between atoms: _83  and  _86
REMARK   37  A    between atoms: _86  and  _87
REMARK   38  A    between atoms: _90  and  _92
REMARK   39  A    between atoms: _92  and  _93
REMARK   40  A    between atoms: _92  and  _95
REMARK   41  A    between atoms: _95  and  _96
REMARK   42  A    between atoms: _96  and  _97
REMARK   43  A    between atoms: _97  and  _98
REMARK   44  A    between atoms: _107  and  _109
REMARK   45  A    between atoms: _109  and  _110
REMARK   46  A    between atoms: _109  and  _112
REMARK   47  A    between atoms: _112  and  _113
REMARK   48  A    between atoms: _113  and  _114
REMARK   49  A    between atoms: _114  and  _115
REMARK   50  A    between atoms: _115  and  _116
REMARK   51  A    between atoms: _121  and  _122
REMARK   52  A    between atoms: _127  and  _129
REMARK   53  A    between atoms: _129  and  _130
REMARK   54  A    between atoms: _129  and  _132
REMARK   55  A    between atoms: _135  and  _137
REMARK   56  A    between atoms: _137  and  _138
REMARK   57  A    between atoms: _137  and  _140
REMARK   58  A    between atoms: _140  and  _141
REMARK   59  A    between atoms: _146  and  _148
REMARK   60  A    between atoms: _148  and  _149
REMARK   61  A    between atoms: _148  and  _151
REMARK   62  A    between atoms: _151  and  _152
REMARK   63  A    between atoms: _155  and  _157
REMARK   64  A    between atoms: _157  and  _158
REMARK   65  A    between atoms: _157  and  _160
REMARK   66  A    between atoms: _160  and  _161
REMARK   67  A    between atoms: _167  and  _169
REMARK   68  A    between atoms: _169  and  _170
REMARK   69  A    between atoms: _169  and  _172
REMARK   70  A    between atoms: _172  and  _173
REMARK   71  A    between atoms: _173  and  _174
REMARK   72  A    between atoms: _174  and  _175
REMARK   73  A    between atoms: _175  and  _176
REMARK   74  A    between atoms: _180  and  _182
REMARK   75  A    between atoms: _182  and  _183
REMARK   76  A    between atoms: _182  and  _185
REMARK   77  A    between atoms: _185  and  _186
REMARK   78  A    between atoms: _191  and  _193
REMARK   79  A    between atoms: _193  and  _194
REMARK   80  A    between atoms: _193  and  _196
REMARK   81  A    between atoms: _196  and  _197
REMARK   82  A    between atoms: _200  and  _202
REMARK   83  A    between atoms: _202  and  _203
REMARK   84  A    between atoms: _202  and  _205
REMARK   85  A    between atoms: _205  and  _206
REMARK   86  A    between atoms: _209  and  _211
REMARK   87  A    between atoms: _211  and  _212
REMARK   88  A    between atoms: _211  and  _214
REMARK   89  A    between atoms: _214  and  _215
REMARK   90  A    between atoms: _218  and  _220
REMARK   91  A    between atoms: _220  and  _221
REMARK   92  A    between atoms: _220  and  _223
REMARK   93  A    between atoms: _225  and  _227
REMARK   94  A    between atoms: _227  and  _228
REMARK   95  A    between atoms: _227  and  _230
REMARK   96  A    between atoms: _230  and  _231
REMARK   97  A    between atoms: _231  and  _232
REMARK   98  A    between atoms: _232  and  _233
REMARK   99  A    between atoms: _242  and  _244
REMARK  100  A    between atoms: _244  and  _245
REMARK  101  A    between atoms: _244  and  _247
REMARK  102  A    between atoms: _247  and  _248
REMARK  103  A    between atoms: _248  and  _249
REMARK  104  A    between atoms: _249  and  _250
REMARK  105  A    between atoms: _250  and  _251
REMARK  106  A    between atoms: _255  and  _257
REMARK  107  A    between atoms: _257  and  _258
REMARK  108  A    between atoms: _257  and  _260
REMARK  109  A    between atoms: _260  and  _261
REMARK  110  A    between atoms: _264  and  _266
REMARK  111  A    between atoms: _266  and  _267
REMARK  112  A    between atoms: _270  and  _272
REMARK  113  A    between atoms: _272  and  _273
REMARK  114  A    between atoms: _272  and  _275
REMARK  115  A    between atoms: _278  and  _280
REMARK  116  A    between atoms: _280  and  _281
REMARK  117  A    between atoms: _280  and  _283
REMARK  118  A    between atoms: _283  and  _284
REMARK  119  A    between atoms: _289  and  _291
REMARK  120  A    between atoms: _291  and  _292
REMARK  121  A    between atoms: _291  and  _294
REMARK  122  A    between atoms: _294  and  _295
REMARK  123  A    between atoms: _301  and  _303
REMARK  124  A    between atoms: _303  and  _304
REMARK  125  A    between atoms: _303  and  _306
REMARK  126  A    between atoms: _306  and  _307
REMARK  127  A    between atoms: _310  and  _312
REMARK  128  A    between atoms: _312  and  _313
REMARK  129  A    between atoms: _316  and  _318
REMARK  130  A    between atoms: _318  and  _319
REMARK  131  A    between atoms: _318  and  _321
REMARK  132  A    between atoms: _321  and  _322
REMARK  133  A    between atoms: _324  and  _326
REMARK  134  A    between atoms: _326  and  _327
REMARK  135  A    between atoms: _326  and  _329
REMARK                            x       y       z     vdW  Elec       q    Type
REMARK                         _______ _______ _______ _____ _____    ______ ____
ROOT
ATOM      1  O   HOH     1      38.097   2.704  18.656  0.00  0.00    +0.000 OA
ENDROOT
TORSDOF 0
REMARK  Name = ../refined-set-2016/4g8y/4g8y_pocket.pdb
REMARK  135 active torsions:
REMARK  status: ('A' for Active; 'I' for Inactive)
REMARK    1  A    between atoms: _1  and  _3
REMARK    2  A    between atoms: _3  and  _4
REMARK    3  A    between atoms: _7  and  _9
REMARK    4  A    between atoms: _9  and  _10
REMARK    5  A    between atoms: _9  and  _12
REMARK    6  A    between atoms: _12  and  _13
REMARK    7  A    between atoms: _13  and  _14
REMARK    8  A    between atoms: _14  and  _15
REMARK    9  A    between atoms: _15  and  _16
REMARK   10  A    between atoms: _20  and  _22
REMARK   11  A    between atoms: _22  and  _23
REMARK   12  A    between atoms: _22  and  _25
REMARK   13  A    between atoms: _25  and  _26
REMARK   14  A    between atoms: _32  and  _34
REMARK   15  A    between atoms: _34  and  _35
REMARK   16  A    between atoms: _34  and  _37
REMARK   17  A    between atoms: _37  and  _38
REMARK   18  A    between atoms: _38  and  _39
REMARK   19  A    between atoms: _39  and  _40
REMARK   20  A    between atoms: _49  and  _51
REMARK   21  A    between atoms: _51  and  _52
REMARK   22  A    between atoms: _51  and  _54
REMARK   23  A    between atoms: _54  and  _55
REMARK   24  A    between atoms: _55  and  _56
REMARK   25  A    between atoms: _61  and  _63
REMARK   26  A    between atoms: _63  and  _64
REMARK   27  A    between atoms: _63  and  _66
REMARK   28  A    between atoms: _66  and  _67
REMARK   29  A    between atoms: _72  and  _74
REMARK   30  A    between atoms: _74  and  _75
REMARK   31  A    between atoms: _74  and  _77
REMARK   32  A    between atoms: _77  and  _78
REMARK   33  A    between atoms: _78  and  _79
REMARK   34  A    between atoms: _81  and  _83
REMARK   35  A    between atoms: _83  and  _84
REMARK   36  A    between atoms: _83  and  _86
REMARK   37  A    between atoms: _86  and  _87
REMARK   38  A    between atoms: _90  and  _92
REMARK   39  A    between atoms: _92  and  _93
REMARK   40  A    between atoms: _92  and  _95
REMARK   41  A    between atoms: _95  and  _96
REMARK   42  A    between atoms: _96  and  _97
REMARK   43  A    between atoms: _97  and  _98
REMARK   44  A    between atoms: _107  and  _109
REMARK   45  A    between atoms: _109  and  _110
REMARK   46  A    between atoms: _109  and  _112
REMARK   47  A    between atoms: _112  and  _113
REMARK   48  A    between atoms: _113  and  _114
REMARK   49  A    between atoms: _114  and  _115
REMARK   50  A    between atoms: _115  and  _116
REMARK   51  A    between atoms: _121  and  _122
REMARK   52  A    between atoms: _127  and  _129
REMARK   53  A    between atoms: _129  and  _130
REMARK   54  A    between atoms: _129  and  _132
REMARK   55  A    between atoms: _135  and  _137
REMARK   56  A    between atoms: _137  and  _138
REMARK   57  A    between atoms: _137  and  _140
REMARK   58  A    between atoms: _140  and  _141
REMARK   59  A    between atoms: _146  and  _148
REMARK   60  A    between atoms: _148  and  _149
REMARK   61  A    between atoms: _148  and  _151
REMARK   62  A    between atoms: _151  and  _152
REMARK   63  A    between atoms: _155  and  _157
REMARK   64  A    between atoms: _157  and  _158
REMARK   65  A    between atoms: _157  and  _160
REMARK   66  A    between atoms: _160  and  _161
REMARK   67  A    between atoms: _167  and  _169
REMARK   68  A    between atoms: _169  and  _170
REMARK   69  A    between atoms: _169  and  _172
REMARK   70  A    between atoms: _172  and  _173
REMARK   71  A    between atoms: _173  and  _174
REMARK   72  A    between atoms: _174  and  _175
REMARK   73  A    between atoms: _175  and  _176
REMARK   74  A    between atoms: _180  and  _182
REMARK   75  A    between atoms: _182  and  _183
REMARK   76  A    between atoms: _182  and  _185
REMARK   77  A    between atoms: _185  and  _186
REMARK   78  A    between atoms: _191  and  _193
REMARK   79  A    between atoms: _193  and  _194
REMARK   80  A    between atoms: _193  and  _196
REMARK   81  A    between atoms: _196  and  _197
REMARK   82  A    between atoms: _200  and  _202
REMARK   83  A    between atoms: _202  and  _203
REMARK   84  A    between atoms: _202  and  _205
REMARK   85  A    between atoms: _205  and  _206
REMARK   86  A    between atoms: _209  and  _211
REMARK   87  A    between atoms: _211  and  _212
REMARK   88  A    between atoms: _211  and  _214
REMARK   89  A    between atoms: _214  and  _215
REMARK   90  A    between atoms: _218  and  _220
REMARK   91  A    between atoms: _220  and  _221
REMARK   92  A    between atoms: _220  and  _223
REMARK   93  A    between atoms: _225  and  _227
REMARK   94  A    between atoms: _227  and  _228
REMARK   95  A    between atoms: _227  and  _230
REMARK   96  A    between atoms: _230  and  _231
REMARK   97  A    between atoms: _231  and  _232
REMARK   98  A    between atoms: _232  and  _233
REMARK   99  A    between atoms: _242  and  _244
REMARK  100  A    between atoms: _244  and  _245
REMARK  101  A    between atoms: _244  and  _247
REMARK  102  A    between atoms: _247  and  _248
REMARK  103  A    between atoms: _248  and  _249
REMARK  104  A    between atoms: _249  and  _250
REMARK  105  A    between atoms: _250  and  _251
REMARK  106  A    between atoms: _255  and  _257
REMARK  107  A    between atoms: _257  and  _258
REMARK  108  A    between atoms: _257  and  _260
REMARK  109  A    between atoms: _260  and  _261
REMARK  110  A    between atoms: _264  and  _266
REMARK  111  A    between atoms: _266  and  _267
REMARK  112  A    between atoms: _270  and  _272
REMARK  113  A    between atoms: _272  and  _273
REMARK  114  A    between atoms: _272  and  _275
REMARK  115  A    between atoms: _278  and  _280
REMARK  116  A    between atoms: _280  and  _281
REMARK  117  A    between atoms: _280  and  _283
REMARK  118  A    between atoms: _283  and  _284
REMARK  119  A    between atoms: _289  and  _291
REMARK  120  A    between atoms: _291  and  _292
REMARK  121  A    between atoms: _291  and  _294
REMARK  122  A    between atoms: _294  and  _295
REMARK  123  A    between atoms: _301  and  _303
REMARK  124  A    between atoms: _303  and  _304
REMARK  125  A    between atoms: _303  and  _306
REMARK  126  A    between atoms: _306  and  _307
REMARK  127  A    between atoms: _310  and  _312
REMARK  128  A    between atoms: _312  and  _313
REMARK  129  A    between atoms: _316  and  _318
REMARK  130  A    between atoms: _318  and  _319
REMARK  131  A    between atoms: _318  and  _321
REMARK  132  A    between atoms: _321  and  _322
REMARK  133  A    between atoms: _324  and  _326
REMARK  134  A    between atoms: _326  and  _327
REMARK  135  A    between atoms: _326  and  _329
REMARK                            x       y       z     vdW  Elec       q    Type
REMARK                         _______ _______ _______ _____ _____    ______ ____
ROOT
ATOM      1  O   HOH     1      37.646  -7.735  15.339  0.00  0.00    +0.000 OA
ENDROOT
TORSDOF 0
REMARK  Name = ../refined-set-2016/4g8y/4g8y_pocket.pdb
REMARK  135 active torsions:
REMARK  status: ('A' for Active; 'I' for Inactive)
REMARK    1  A    between atoms: _1  and  _3
REMARK    2  A    between atoms: _3  and  _4
REMARK    3  A    between atoms: _7  and  _9
REMARK    4  A    between atoms: _9  and  _10
REMARK    5  A    between atoms: _9  and  _12
REMARK    6  A    between atoms: _12  and  _13
REMARK    7  A    between atoms: _13  and  _14
REMARK    8  A    between atoms: _14  and  _15
REMARK    9  A    between atoms: _15  and  _16
REMARK   10  A    between atoms: _20  and  _22
REMARK   11  A    between atoms: _22  and  _23
REMARK   12  A    between atoms: _22  and  _25
REMARK   13  A    between atoms: _25  and  _26
REMARK   14  A    between atoms: _32  and  _34
REMARK   15  A    between atoms: _34  and  _35
REMARK   16  A    between atoms: _34  and  _37
REMARK   17  A    between atoms: _37  and  _38
REMARK   18  A    between atoms: _38  and  _39
REMARK   19  A    between atoms: _39  and  _40
REMARK   20  A    between atoms: _49  and  _51
REMARK   21  A    between atoms: _51  and  _52
REMARK   22  A    between atoms: _51  and  _54
REMARK   23  A    between atoms: _54  and  _55
REMARK   24  A    between atoms: _55  and  _56
REMARK   25  A    between atoms: _61  and  _63
REMARK   26  A    between atoms: _63  and  _64
REMARK   27  A    between atoms: _63  and  _66
REMARK   28  A    between atoms: _66  and  _67
REMARK   29  A    between atoms: _72  and  _74
REMARK   30  A    between atoms: _74  and  _75
REMARK   31  A    between atoms: _74  and  _77
REMARK   32  A    between atoms: _77  and  _78
REMARK   33  A    between atoms: _78  and  _79
REMARK   34  A    between atoms: _81  and  _83
REMARK   35  A    between atoms: _83  and  _84
REMARK   36  A    between atoms: _83  and  _86
REMARK   37  A    between atoms: _86  and  _87
REMARK   38  A    between atoms: _90  and  _92
REMARK   39  A    between atoms: _92  and  _93
REMARK   40  A    between atoms: _92  and  _95
REMARK   41  A    between atoms: _95  and  _96
REMARK   42  A    between atoms: _96  and  _97
REMARK   43  A    between atoms: _97  and  _98
REMARK   44  A    between atoms: _107  and  _109
REMARK   45  A    between atoms: _109  and  _110
REMARK   46  A    between atoms: _109  and  _112
REMARK   47  A    between atoms: _112  and  _113
REMARK   48  A    between atoms: _113  and  _114
REMARK   49  A    between atoms: _114  and  _115
REMARK   50  A    between atoms: _115  and  _116
REMARK   51  A    between atoms: _121  and  _122
REMARK   52  A    between atoms: _127  and  _129
REMARK   53  A    between atoms: _129  and  _130
REMARK   54  A    between atoms: _129  and  _132
REMARK   55  A    between atoms: _135  and  _137
REMARK   56  A    between atoms: _137  and  _138
REMARK   57  A    between atoms: _137  and  _140
REMARK   58  A    between atoms: _140  and  _141
REMARK   59  A    between atoms: _146  and  _148
REMARK   60  A    between atoms: _148  and  _149
REMARK   61  A    between atoms: _148  and  _151
REMARK   62  A    between atoms: _151  and  _152
REMARK   63  A    between atoms: _155  and  _157
REMARK   64  A    between atoms: _157  and  _158
REMARK   65  A    between atoms: _157  and  _160
REMARK   66  A    between atoms: _160  and  _161
REMARK   67  A    between atoms: _167  and  _169
REMARK   68  A    between atoms: _169  and  _170
REMARK   69  A    between atoms: _169  and  _172
REMARK   70  A    between atoms: _172  and  _173
REMARK   71  A    between atoms: _173  and  _174
REMARK   72  A    between atoms: _174  and  _175
REMARK   73  A    between atoms: _175  and  _176
REMARK   74  A    between atoms: _180  and  _182
REMARK   75  A    between atoms: _182  and  _183
REMARK   76  A    between atoms: _182  and  _185
REMARK   77  A    between atoms: _185  and  _186
REMARK   78  A    between atoms: _191  and  _193
REMARK   79  A    between atoms: _193  and  _194
REMARK   80  A    between atoms: _193  and  _196
REMARK   81  A    between atoms: _196  and  _197
REMARK   82  A    between atoms: _200  and  _202
REMARK   83  A    between atoms: _202  and  _203
REMARK   84  A    between atoms: _202  and  _205
REMARK   85  A    between atoms: _205  and  _206
REMARK   86  A    between atoms: _209  and  _211
REMARK   87  A    between atoms: _211  and  _212
REMARK   88  A    between atoms: _211  and  _214
REMARK   89  A    between atoms: _214  and  _215
REMARK   90  A    between atoms: _218  and  _220
REMARK   91  A    between atoms: _220  and  _221
REMARK   92  A    between atoms: _220  and  _223
REMARK   93  A    between atoms: _225  and  _227
REMARK   94  A    between atoms: _227  and  _228
REMARK   95  A    between atoms: _227  and  _230
REMARK   96  A    between atoms: _230  and  _231
REMARK   97  A    between atoms: _231  and  _232
REMARK   98  A    between atoms: _232  and  _233
REMARK   99  A    between atoms: _242  and  _244
REMARK  100  A    between atoms: _244  and  _245
REMARK  101  A    between atoms: _244  and  _247
REMARK  102  A    between atoms: _247  and  _248
REMARK  103  A    between atoms: _248  and  _249
REMARK  104  A    between atoms: _249  and  _250
REMARK  105  A    between atoms: _250  and  _251
REMARK  106  A    between atoms: _255  and  _257
REMARK  107  A    between atoms: _257  and  _258
REMARK  108  A    between atoms: _257  and  _260
REMARK  109  A    between atoms: _260  and  _261
REMARK  110  A    between atoms: _264  and  _266
REMARK  111  A    between atoms: _266  and  _267
REMARK  112  A    between atoms: _270  and  _272
REMARK  113  A    between atoms: _272  and  _273
REMARK  114  A    between atoms: _272  and  _275
REMARK  115  A    between atoms: _278  and  _280
REMARK  116  A    between atoms: _280  and  _281
REMARK  117  A    between atoms: _280  and  _283
REMARK  118  A    between atoms: _283  and  _284
REMARK  119  A    between atoms: _289  and  _291
REMARK  120  A    between atoms: _291  and  _292
REMARK  121  A    between atoms: _291  and  _294
REMARK  122  A    between atoms: _294  and  _295
REMARK  123  A    between atoms: _301  and  _303
REMARK  124  A    between atoms: _303  and  _304
REMARK  125  A    between atoms: _303  and  _306
REMARK  126  A    between atoms: _306  and  _307
REMARK  127  A    between atoms: _310  and  _312
REMARK  128  A    between atoms: _312  and  _313
REMARK  129  A    between atoms: _316  and  _318
REMARK  130  A    between atoms: _318  and  _319
REMARK  131  A    between atoms: _318  and  _321
REMARK  132  A    between atoms: _321  and  _322
REMARK  133  A    between atoms: _324  and  _326
REMARK  134  A    between atoms: _326  and  _327
REMARK  135  A    between atoms: _326  and  _329
REMARK                            x       y       z     vdW  Elec       q    Type
REMARK                         _______ _______ _______ _____ _____    ______ ____
ROOT
ATOM      1  O   HOH     1      40.311   0.570  21.827  0.00  0.00    +0.000 OA
ENDROOT
TORSDOF 0
REMARK  Name = ../refined-set-2016/4g8y/4g8y_pocket.pdb
REMARK  135 active torsions:
REMARK  status: ('A' for Active; 'I' for Inactive)
REMARK    1  A    between atoms: _1  and  _3
REMARK    2  A    between atoms: _3  and  _4
REMARK    3  A    between atoms: _7  and  _9
REMARK    4  A    between atoms: _9  and  _10
REMARK    5  A    between atoms: _9  and  _12
REMARK    6  A    between atoms: _12  and  _13
REMARK    7  A    between atoms: _13  and  _14
REMARK    8  A    between atoms: _14  and  _15
REMARK    9  A    between atoms: _15  and  _16
REMARK   10  A    between atoms: _20  and  _22
REMARK   11  A    between atoms: _22  and  _23
REMARK   12  A    between atoms: _22  and  _25
REMARK   13  A    between atoms: _25  and  _26
REMARK   14  A    between atoms: _32  and  _34
REMARK   15  A    between atoms: _34  and  _35
REMARK   16  A    between atoms: _34  and  _37
REMARK   17  A    between atoms: _37  and  _38
REMARK   18  A    between atoms: _38  and  _39
REMARK   19  A    between atoms: _39  and  _40
REMARK   20  A    between atoms: _49  and  _51
REMARK   21  A    between atoms: _51  and  _52
REMARK   22  A    between atoms: _51  and  _54
REMARK   23  A    between atoms: _54  and  _55
REMARK   24  A    between atoms: _55  and  _56
REMARK   25  A    between atoms: _61  and  _63
REMARK   26  A    between atoms: _63  and  _64
REMARK   27  A    between atoms: _63  and  _66
REMARK   28  A    between atoms: _66  and  _67
REMARK   29  A    between atoms: _72  and  _74
REMARK   30  A    between atoms: _74  and  _75
REMARK   31  A    between atoms: _74  and  _77
REMARK   32  A    between atoms: _77  and  _78
REMARK   33  A    between atoms: _78  and  _79
REMARK   34  A    between atoms: _81  and  _83
REMARK   35  A    between atoms: _83  and  _84
REMARK   36  A    between atoms: _83  and  _86
REMARK   37  A    between atoms: _86  and  _87
REMARK   38  A    between atoms: _90  and  _92
REMARK   39  A    between atoms: _92  and  _93
REMARK   40  A    between atoms: _92  and  _95
REMARK   41  A    between atoms: _95  and  _96
REMARK   42  A    between atoms: _96  and  _97
REMARK   43  A    between atoms: _97  and  _98
REMARK   44  A    between atoms: _107  and  _109
REMARK   45  A    between atoms: _109  and  _110
REMARK   46  A    between atoms: _109  and  _112
REMARK   47  A    between atoms: _112  and  _113
REMARK   48  A    between atoms: _113  and  _114
REMARK   49  A    between atoms: _114  and  _115
REMARK   50  A    between atoms: _115  and  _116
REMARK   51  A    between atoms: _121  and  _122
REMARK   52  A    between atoms: _127  and  _129
REMARK   53  A    between atoms: _129  and  _130
REMARK   54  A    between atoms: _129  and  _132
REMARK   55  A    between atoms: _135  and  _137
REMARK   56  A    between atoms: _137  and  _138
REMARK   57  A    between atoms: _137  and  _140
REMARK   58  A    between atoms: _140  and  _141
REMARK   59  A    between atoms: _146  and  _148
REMARK   60  A    between atoms: _148  and  _149
REMARK   61  A    between atoms: _148  and  _151
REMARK   62  A    between atoms: _151  and  _152
REMARK   63  A    between atoms: _155  and  _157
REMARK   64  A    between atoms: _157  and  _158
REMARK   65  A    between atoms: _157  and  _160
REMARK   66  A    between atoms: _160  and  _161
REMARK   67  A    between atoms: _167  and  _169
REMARK   68  A    between atoms: _169  and  _170
REMARK   69  A    between atoms: _169  and  _172
REMARK   70  A    between atoms: _172  and  _173
REMARK   71  A    between atoms: _173  and  _174
REMARK   72  A    between atoms: _174  and  _175
REMARK   73  A    between atoms: _175  and  _176
REMARK   74  A    between atoms: _180  and  _182
REMARK   75  A    between atoms: _182  and  _183
REMARK   76  A    between atoms: _182  and  _185
REMARK   77  A    between atoms: _185  and  _186
REMARK   78  A    between atoms: _191  and  _193
REMARK   79  A    between atoms: _193  and  _194
REMARK   80  A    between atoms: _193  and  _196
REMARK   81  A    between atoms: _196  and  _197
REMARK   82  A    between atoms: _200  and  _202
REMARK   83  A    between atoms: _202  and  _203
REMARK   84  A    between atoms: _202  and  _205
REMARK   85  A    between atoms: _205  and  _206
REMARK   86  A    between atoms: _209  and  _211
REMARK   87  A    between atoms: _211  and  _212
REMARK   88  A    between atoms: _211  and  _214
REMARK   89  A    between atoms: _214  and  _215
REMARK   90  A    between atoms: _218  and  _220
REMARK   91  A    between atoms: _220  and  _221
REMARK   92  A    between atoms: _220  and  _223
REMARK   93  A    between atoms: _225  and  _227
REMARK   94  A    between atoms: _227  and  _228
REMARK   95  A    between atoms: _227  and  _230
REMARK   96  A    between atoms: _230  and  _231
REMARK   97  A    between atoms: _231  and  _232
REMARK   98  A    between atoms: _232  and  _233
REMARK   99  A    between atoms: _242  and  _244
REMARK  100  A    between atoms: _244  and  _245
REMARK  101  A    between atoms: _244  and  _247
REMARK  102  A    between atoms: _247  and  _248
REMARK  103  A    between atoms: _248  and  _249
REMARK  104  A    between atoms: _249  and  _250
REMARK  105  A    between atoms: _250  and  _251
REMARK  106  A    between atoms: _255  and  _257
REMARK  107  A    between atoms: _257  and  _258
REMARK  108  A    between atoms: _257  and  _260
REMARK  109  A    between atoms: _260  and  _261
REMARK  110  A    between atoms: _264  and  _266
REMARK  111  A    between atoms: _266  and  _267
REMARK  112  A    between atoms: _270  and  _272
REMARK  113  A    between atoms: _272  and  _273
REMARK  114  A    between atoms: _272  and  _275
REMARK  115  A    between atoms: _278  and  _280
REMARK  116  A    between atoms: _280  and  _281
REMARK  117  A    between atoms: _280  and  _283
REMARK  118  A    between atoms: _283  and  _284
REMARK  119  A    between atoms: _289  and  _291
REMARK  120  A    between atoms: _291  and  _292
REMARK  121  A    between atoms: _291  and  _294
REMARK  122  A    between atoms: _294  and  _295
REMARK  123  A    between atoms: _301  and  _303
REMARK  124  A    between atoms: _303  and  _304
REMARK  125  A    between atoms: _303  and  _306
REMARK  126  A    between atoms: _306  and  _307
REMARK  127  A    between atoms: _310  and  _312
REMARK  128  A    between atoms: _312  and  _313
REMARK  129  A    between atoms: _316  and  _318
REMARK  130  A    between atoms: _318  and  _319
REMARK  131  A    between atoms: _318  and  _321
REMARK  132  A    between atoms: _321  and  _322
REMARK  133  A    between atoms: _324  and  _326
REMARK  134  A    between atoms: _326  and  _327
REMARK  135  A    between atoms: _326  and  _329
REMARK                            x       y       z     vdW  Elec       q    Type
REMARK                         _______ _______ _______ _____ _____    ______ ____
ROOT
ATOM      1  O   HOH     1      34.201   9.825  16.890  0.00  0.00    +0.000 OA
ENDROOT
TORSDOF 0
REMARK  Name = ../refined-set-2016/4g8y/4g8y_pocket.pdb
REMARK  135 active torsions:
REMARK  status: ('A' for Active; 'I' for Inactive)
REMARK    1  A    between atoms: _1  and  _3
REMARK    2  A    between atoms: _3  and  _4
REMARK    3  A    between atoms: _7  and  _9
REMARK    4  A    between atoms: _9  and  _10
REMARK    5  A    between atoms: _9  and  _12
REMARK    6  A    between atoms: _12  and  _13
REMARK    7  A    between atoms: _13  and  _14
REMARK    8  A    between atoms: _14  and  _15
REMARK    9  A    between atoms: _15  and  _16
REMARK   10  A    between atoms: _20  and  _22
REMARK   11  A    between atoms: _22  and  _23
REMARK   12  A    between atoms: _22  and  _25
REMARK   13  A    between atoms: _25  and  _26
REMARK   14  A    between atoms: _32  and  _34
REMARK   15  A    between atoms: _34  and  _35
REMARK   16  A    between atoms: _34  and  _37
REMARK   17  A    between atoms: _37  and  _38
REMARK   18  A    between atoms: _38  and  _39
REMARK   19  A    between atoms: _39  and  _40
REMARK   20  A    between atoms: _49  and  _51
REMARK   21  A    between atoms: _51  and  _52
REMARK   22  A    between atoms: _51  and  _54
REMARK   23  A    between atoms: _54  and  _55
REMARK   24  A    between atoms: _55  and  _56
REMARK   25  A    between atoms: _61  and  _63
REMARK   26  A    between atoms: _63  and  _64
REMARK   27  A    between atoms: _63  and  _66
REMARK   28  A    between atoms: _66  and  _67
REMARK   29  A    between atoms: _72  and  _74
REMARK   30  A    between atoms: _74  and  _75
REMARK   31  A    between atoms: _74  and  _77
REMARK   32  A    between atoms: _77  and  _78
REMARK   33  A    between atoms: _78  and  _79
REMARK   34  A    between atoms: _81  and  _83
REMARK   35  A    between atoms: _83  and  _84
REMARK   36  A    between atoms: _83  and  _86
REMARK   37  A    between atoms: _86  and  _87
REMARK   38  A    between atoms: _90  and  _92
REMARK   39  A    between atoms: _92  and  _93
REMARK   40  A    between atoms: _92  and  _95
REMARK   41  A    between atoms: _95  and  _96
REMARK   42  A    between atoms: _96  and  _97
REMARK   43  A    between atoms: _97  and  _98
REMARK   44  A    between atoms: _107  and  _109
REMARK   45  A    between atoms: _109  and  _110
REMARK   46  A    between atoms: _109  and  _112
REMARK   47  A    between atoms: _112  and  _113
REMARK   48  A    between atoms: _113  and  _114
REMARK   49  A    between atoms: _114  and  _115
REMARK   50  A    between atoms: _115  and  _116
REMARK   51  A    between atoms: _121  and  _122
REMARK   52  A    between atoms: _127  and  _129
REMARK   53  A    between atoms: _129  and  _130
REMARK   54  A    between atoms: _129  and  _132
REMARK   55  A    between atoms: _135  and  _137
REMARK   56  A    between atoms: _137  and  _138
REMARK   57  A    between atoms: _137  and  _140
REMARK   58  A    between atoms: _140  and  _141
REMARK   59  A    between atoms: _146  and  _148
REMARK   60  A    between atoms: _148  and  _149
REMARK   61  A    between atoms: _148  and  _151
REMARK   62  A    between atoms: _151  and  _152
REMARK   63  A    between atoms: _155  and  _157
REMARK   64  A    between atoms: _157  and  _158
REMARK   65  A    between atoms: _157  and  _160
REMARK   66  A    between atoms: _160  and  _161
REMARK   67  A    between atoms: _167  and  _169
REMARK   68  A    between atoms: _169  and  _170
REMARK   69  A    between atoms: _169  and  _172
REMARK   70  A    between atoms: _172  and  _173
REMARK   71  A    between atoms: _173  and  _174
REMARK   72  A    between atoms: _174  and  _175
REMARK   73  A    between atoms: _175  and  _176
REMARK   74  A    between atoms: _180  and  _182
REMARK   75  A    between atoms: _182  and  _183
REMARK   76  A    between atoms: _182  and  _185
REMARK   77  A    between atoms: _185  and  _186
REMARK   78  A    between atoms: _191  and  _193
REMARK   79  A    between atoms: _193  and  _194
REMARK   80  A    between atoms: _193  and  _196
REMARK   81  A    between atoms: _196  and  _197
REMARK   82  A    between atoms: _200  and  _202
REMARK   83  A    between atoms: _202  and  _203
REMARK   84  A    between atoms: _202  and  _205
REMARK   85  A    between atoms: _205  and  _206
REMARK   86  A    between atoms: _209  and  _211
REMARK   87  A    between atoms: _211  and  _212
REMARK   88  A    between atoms: _211  and  _214
REMARK   89  A    between atoms: _214  and  _215
REMARK   90  A    between atoms: _218  and  _220
REMARK   91  A    between atoms: _220  and  _221
REMARK   92  A    between atoms: _220  and  _223
REMARK   93  A    between atoms: _225  and  _227
REMARK   94  A    between atoms: _227  and  _228
REMARK   95  A    between atoms: _227  and  _230
REMARK   96  A    between atoms: _230  and  _231
REMARK   97  A    between atoms: _231  and  _232
REMARK   98  A    between atoms: _232  and  _233
REMARK   99  A    between atoms: _242  and  _244
REMARK  100  A    between atoms: _244  and  _245
REMARK  101  A    between atoms: _244  and  _247
REMARK  102  A    between atoms: _247  and  _248
REMARK  103  A    between atoms: _248  and  _249
REMARK  104  A    between atoms: _249  and  _250
REMARK  105  A    between atoms: _250  and  _251
REMARK  106  A    between atoms: _255  and  _257
REMARK  107  A    between atoms: _257  and  _258
REMARK  108  A    between atoms: _257  and  _260
REMARK  109  A    between atoms: _260  and  _261
REMARK  110  A    between atoms: _264  and  _266
REMARK  111  A    between atoms: _266  and  _267
REMARK  112  A    between atoms: _270  and  _272
REMARK  113  A    between atoms: _272  and  _273
REMARK  114  A    between atoms: _272  and  _275
REMARK  115  A    between atoms: _278  and  _280
REMARK  116  A    between atoms: _280  and  _281
REMARK  117  A    between atoms: _280  and  _283
REMARK  118  A    between atoms: _283  and  _284
REMARK  119  A    between atoms: _289  and  _291
REMARK  120  A    between atoms: _291  and  _292
REMARK  121  A    between atoms: _291  and  _294
REMARK  122  A    between atoms: _294  and  _295
REMARK  123  A    between atoms: _301  and  _303
REMARK  124  A    between atoms: _303  and  _304
REMARK  125  A    between atoms: _303  and  _306
REMARK  126  A    between atoms: _306  and  _307
REMARK  127  A    between atoms: _310  and  _312
REMARK  128  A    between atoms: _312  and  _313
REMARK  129  A    between atoms: _316  and  _318
REMARK  130  A    between atoms: _318  and  _319
REMARK  131  A    between atoms: _318  and  _321
REMARK  132  A    between atoms: _321  and  _322
REMARK  133  A    between atoms: _324  and  _326
REMARK  134  A    between atoms: _326  and  _327
REMARK  135  A    between atoms: _326  and  _329
REMARK                            x       y       z     vdW  Elec       q    Type
REMARK                         _______ _______ _______ _____ _____    ______ ____
ROOT
ATOM      1  O   HOH     1      42.467  -2.524  14.301  0.00  0.00    +0.000 OA
ENDROOT
TORSDOF 0
REMARK  Name = ../refined-set-2016/4g8y/4g8y_pocket.pdb
REMARK  135 active torsions:
REMARK  status: ('A' for Active; 'I' for Inactive)
REMARK    1  A    between atoms: _1  and  _3
REMARK    2  A    between atoms: _3  and  _4
REMARK    3  A    between atoms: _7  and  _9
REMARK    4  A    between atoms: _9  and  _10
REMARK    5  A    between atoms: _9  and  _12
REMARK    6  A    between atoms: _12  and  _13
REMARK    7  A    between atoms: _13  and  _14
REMARK    8  A    between atoms: _14  and  _15
REMARK    9  A    between atoms: _15  and  _16
REMARK   10  A    between atoms: _20  and  _22
REMARK   11  A    between atoms: _22  and  _23
REMARK   12  A    between atoms: _22  and  _25
REMARK   13  A    between atoms: _25  and  _26
REMARK   14  A    between atoms: _32  and  _34
REMARK   15  A    between atoms: _34  and  _35
REMARK   16  A    between atoms: _34  and  _37
REMARK   17  A    between atoms: _37  and  _38
REMARK   18  A    between atoms: _38  and  _39
REMARK   19  A    between atoms: _39  and  _40
REMARK   20  A    between atoms: _49  and  _51
REMARK   21  A    between atoms: _51  and  _52
REMARK   22  A    between atoms: _51  and  _54
REMARK   23  A    between atoms: _54  and  _55
REMARK   24  A    between atoms: _55  and  _56
REMARK   25  A    between atoms: _61  and  _63
REMARK   26  A    between atoms: _63  and  _64
REMARK   27  A    between atoms: _63  and  _66
REMARK   28  A    between atoms: _66  and  _67
REMARK   29  A    between atoms: _72  and  _74
REMARK   30  A    between atoms: _74  and  _75
REMARK   31  A    between atoms: _74  and  _77
REMARK   32  A    between atoms: _77  and  _78
REMARK   33  A    between atoms: _78  and  _79
REMARK   34  A    between atoms: _81  and  _83
REMARK   35  A    between atoms: _83  and  _84
REMARK   36  A    between atoms: _83  and  _86
REMARK   37  A    between atoms: _86  and  _87
REMARK   38  A    between atoms: _90  and  _92
REMARK   39  A    between atoms: _92  and  _93
REMARK   40  A    between atoms: _92  and  _95
REMARK   41  A    between atoms: _95  and  _96
REMARK   42  A    between atoms: _96  and  _97
REMARK   43  A    between atoms: _97  and  _98
REMARK   44  A    between atoms: _107  and  _109
REMARK   45  A    between atoms: _109  and  _110
REMARK   46  A    between atoms: _109  and  _112
REMARK   47  A    between atoms: _112  and  _113
REMARK   48  A    between atoms: _113  and  _114
REMARK   49  A    between atoms: _114  and  _115
REMARK   50  A    between atoms: _115  and  _116
REMARK   51  A    between atoms: _121  and  _122
REMARK   52  A    between atoms: _127  and  _129
REMARK   53  A    between atoms: _129  and  _130
REMARK   54  A    between atoms: _129  and  _132
REMARK   55  A    between atoms: _135  and  _137
REMARK   56  A    between atoms: _137  and  _138
REMARK   57  A    between atoms: _137  and  _140
REMARK   58  A    between atoms: _140  and  _141
REMARK   59  A    between atoms: _146  and  _148
REMARK   60  A    between atoms: _148  and  _149
REMARK   61  A    between atoms: _148  and  _151
REMARK   62  A    between atoms: _151  and  _152
REMARK   63  A    between atoms: _155  and  _157
REMARK   64  A    between atoms: _157  and  _158
REMARK   65  A    between atoms: _157  and  _160
REMARK   66  A    between atoms: _160  and  _161
REMARK   67  A    between atoms: _167  and  _169
REMARK   68  A    between atoms: _169  and  _170
REMARK   69  A    between atoms: _169  and  _172
REMARK   70  A    between atoms: _172  and  _173
REMARK   71  A    between atoms: _173  and  _174
REMARK   72  A    between atoms: _174  and  _175
REMARK   73  A    between atoms: _175  and  _176
REMARK   74  A    between atoms: _180  and  _182
REMARK   75  A    between atoms: _182  and  _183
REMARK   76  A    between atoms: _182  and  _185
REMARK   77  A    between atoms: _185  and  _186
REMARK   78  A    between atoms: _191  and  _193
REMARK   79  A    between atoms: _193  and  _194
REMARK   80  A    between atoms: _193  and  _196
REMARK   81  A    between atoms: _196  and  _197
REMARK   82  A    between atoms: _200  and  _202
REMARK   83  A    between atoms: _202  and  _203
REMARK   84  A    between atoms: _202  and  _205
REMARK   85  A    between atoms: _205  and  _206
REMARK   86  A    between atoms: _209  and  _211
REMARK   87  A    between atoms: _211  and  _212
REMARK   88  A    between atoms: _211  and  _214
REMARK   89  A    between atoms: _214  and  _215
REMARK   90  A    between atoms: _218  and  _220
REMARK   91  A    between atoms: _220  and  _221
REMARK   92  A    between atoms: _220  and  _223
REMARK   93  A    between atoms: _225  and  _227
REMARK   94  A    between atoms: _227  and  _228
REMARK   95  A    between atoms: _227  and  _230
REMARK   96  A    between atoms: _230  and  _231
REMARK   97  A    between atoms: _231  and  _232
REMARK   98  A    between atoms: _232  and  _233
REMARK   99  A    between atoms: _242  and  _244
REMARK  100  A    between atoms: _244  and  _245
REMARK  101  A    between atoms: _244  and  _247
REMARK  102  A    between atoms: _247  and  _248
REMARK  103  A    between atoms: _248  and  _249
REMARK  104  A    between atoms: _249  and  _250
REMARK  105  A    between atoms: _250  and  _251
REMARK  106  A    between atoms: _255  and  _257
REMARK  107  A    between atoms: _257  and  _258
REMARK  108  A    between atoms: _257  and  _260
REMARK  109  A    between atoms: _260  and  _261
REMARK  110  A    between atoms: _264  and  _266
REMARK  111  A    between atoms: _266  and  _267
REMARK  112  A    between atoms: _270  and  _272
REMARK  113  A    between atoms: _272  and  _273
REMARK  114  A    between atoms: _272  and  _275
REMARK  115  A    between atoms: _278  and  _280
REMARK  116  A    between atoms: _280  and  _281
REMARK  117  A    between atoms: _280  and  _283
REMARK  118  A    between atoms: _283  and  _284
REMARK  119  A    between atoms: _289  and  _291
REMARK  120  A    between atoms: _291  and  _292
REMARK  121  A    between atoms: _291  and  _294
REMARK  122  A    between atoms: _294  and  _295
REMARK  123  A    between atoms: _301  and  _303
REMARK  124  A    between atoms: _303  and  _304
REMARK  125  A    between atoms: _303  and  _306
REMARK  126  A    between atoms: _306  and  _307
REMARK  127  A    between atoms: _310  and  _312
REMARK  128  A    between atoms: _312  and  _313
REMARK  129  A    between atoms: _316  and  _318
REMARK  130  A    between atoms: _318  and  _319
REMARK  131  A    between atoms: _318  and  _321
REMARK  132  A    between atoms: _321  and  _322
REMARK  133  A    between atoms: _324  and  _326
REMARK  134  A    between atoms: _326  and  _327
REMARK  135  A    between atoms: _326  and  _329
REMARK                            x       y       z     vdW  Elec       q    Type
REMARK                         _______ _______ _______ _____ _____    ______ ____
ROOT
ATOM      1  O   HOH     1      35.795  -0.834  17.282  0.00  0.00    +0.000 OA
ENDROOT
TORSDOF 0
REMARK  Name = ../refined-set-2016/4g8y/4g8y_pocket.pdb
REMARK  135 active torsions:
REMARK  status: ('A' for Active; 'I' for Inactive)
REMARK    1  A    between atoms: _1  and  _3
REMARK    2  A    between atoms: _3  and  _4
REMARK    3  A    between atoms: _7  and  _9
REMARK    4  A    between atoms: _9  and  _10
REMARK    5  A    between atoms: _9  and  _12
REMARK    6  A    between atoms: _12  and  _13
REMARK    7  A    between atoms: _13  and  _14
REMARK    8  A    between atoms: _14  and  _15
REMARK    9  A    between atoms: _15  and  _16
REMARK   10  A    between atoms: _20  and  _22
REMARK   11  A    between atoms: _22  and  _23
REMARK   12  A    between atoms: _22  and  _25
REMARK   13  A    between atoms: _25  and  _26
REMARK   14  A    between atoms: _32  and  _34
REMARK   15  A    between atoms: _34  and  _35
REMARK   16  A    between atoms: _34  and  _37
REMARK   17  A    between atoms: _37  and  _38
REMARK   18  A    between atoms: _38  and  _39
REMARK   19  A    between atoms: _39  and  _40
REMARK   20  A    between atoms: _49  and  _51
REMARK   21  A    between atoms: _51  and  _52
REMARK   22  A    between atoms: _51  and  _54
REMARK   23  A    between atoms: _54  and  _55
REMARK   24  A    between atoms: _55  and  _56
REMARK   25  A    between atoms: _61  and  _63
REMARK   26  A    between atoms: _63  and  _64
REMARK   27  A    between atoms: _63  and  _66
REMARK   28  A    between atoms: _66  and  _67
REMARK   29  A    between atoms: _72  and  _74
REMARK   30  A    between atoms: _74  and  _75
REMARK   31  A    between atoms: _74  and  _77
REMARK   32  A    between atoms: _77  and  _78
REMARK   33  A    between atoms: _78  and  _79
REMARK   34  A    between atoms: _81  and  _83
REMARK   35  A    between atoms: _83  and  _84
REMARK   36  A    between atoms: _83  and  _86
REMARK   37  A    between atoms: _86  and  _87
REMARK   38  A    between atoms: _90  and  _92
REMARK   39  A    between atoms: _92  and  _93
REMARK   40  A    between atoms: _92  and  _95
REMARK   41  A    between atoms: _95  and  _96
REMARK   42  A    between atoms: _96  and  _97
REMARK   43  A    between atoms: _97  and  _98
REMARK   44  A    between atoms: _107  and  _109
REMARK   45  A    between atoms: _109  and  _110
REMARK   46  A    between atoms: _109  and  _112
REMARK   47  A    between atoms: _112  and  _113
REMARK   48  A    between atoms: _113  and  _114
REMARK   49  A    between atoms: _114  and  _115
REMARK   50  A    between atoms: _115  and  _116
REMARK   51  A    between atoms: _121  and  _122
REMARK   52  A    between atoms: _127  and  _129
REMARK   53  A    between atoms: _129  and  _130
REMARK   54  A    between atoms: _129  and  _132
REMARK   55  A    between atoms: _135  and  _137
REMARK   56  A    between atoms: _137  and  _138
REMARK   57  A    between atoms: _137  and  _140
REMARK   58  A    between atoms: _140  and  _141
REMARK   59  A    between atoms: _146  and  _148
REMARK   60  A    between atoms: _148  and  _149
REMARK   61  A    between atoms: _148  and  _151
REMARK   62  A    between atoms: _151  and  _152
REMARK   63  A    between atoms: _155  and  _157
REMARK   64  A    between atoms: _157  and  _158
REMARK   65  A    between atoms: _157  and  _160
REMARK   66  A    between atoms: _160  and  _161
REMARK   67  A    between atoms: _167  and  _169
REMARK   68  A    between atoms: _169  and  _170
REMARK   69  A    between atoms: _169  and  _172
REMARK   70  A    between atoms: _172  and  _173
REMARK   71  A    between atoms: _173  and  _174
REMARK   72  A    between atoms: _174  and  _175
REMARK   73  A    between atoms: _175  and  _176
REMARK   74  A    between atoms: _180  and  _182
REMARK   75  A    between atoms: _182  and  _183
REMARK   76  A    between atoms: _182  and  _185
REMARK   77  A    between atoms: _185  and  _186
REMARK   78  A    between atoms: _191  and  _193
REMARK   79  A    between atoms: _193  and  _194
REMARK   80  A    between atoms: _193  and  _196
REMARK   81  A    between atoms: _196  and  _197
REMARK   82  A    between atoms: _200  and  _202
REMARK   83  A    between atoms: _202  and  _203
REMARK   84  A    between atoms: _202  and  _205
REMARK   85  A    between atoms: _205  and  _206
REMARK   86  A    between atoms: _209  and  _211
REMARK   87  A    between atoms: _211  and  _212
REMARK   88  A    between atoms: _211  and  _214
REMARK   89  A    between atoms: _214  and  _215
REMARK   90  A    between atoms: _218  and  _220
REMARK   91  A    between atoms: _220  and  _221
REMARK   92  A    between atoms: _220  and  _223
REMARK   93  A    between atoms: _225  and  _227
REMARK   94  A    between atoms: _227  and  _228
REMARK   95  A    between atoms: _227  and  _230
REMARK   96  A    between atoms: _230  and  _231
REMARK   97  A    between atoms: _231  and  _232
REMARK   98  A    between atoms: _232  and  _233
REMARK   99  A    between atoms: _242  and  _244
REMARK  100  A    between atoms: _244  and  _245
REMARK  101  A    between atoms: _244  and  _247
REMARK  102  A    between atoms: _247  and  _248
REMARK  103  A    between atoms: _248  and  _249
REMARK  104  A    between atoms: _249  and  _250
REMARK  105  A    between atoms: _250  and  _251
REMARK  106  A    between atoms: _255  and  _257
REMARK  107  A    between atoms: _257  and  _258
REMARK  108  A    between atoms: _257  and  _260
REMARK  109  A    between atoms: _260  and  _261
REMARK  110  A    between atoms: _264  and  _266
REMARK  111  A    between atoms: _266  and  _267
REMARK  112  A    between atoms: _270  and  _272
REMARK  113  A    between atoms: _272  and  _273
REMARK  114  A    between atoms: _272  and  _275
REMARK  115  A    between atoms: _278  and  _280
REMARK  116  A    between atoms: _280  and  _281
REMARK  117  A    between atoms: _280  and  _283
REMARK  118  A    between atoms: _283  and  _284
REMARK  119  A    between atoms: _289  and  _291
REMARK  120  A    between atoms: _291  and  _292
REMARK  121  A    between atoms: _291  and  _294
REMARK  122  A    between atoms: _294  and  _295
REMARK  123  A    between atoms: _301  and  _303
REMARK  124  A    between atoms: _303  and  _304
REMARK  125  A    between atoms: _303  and  _306
REMARK  126  A    between atoms: _306  and  _307
REMARK  127  A    between atoms: _310  and  _312
REMARK  128  A    between atoms: _312  and  _313
REMARK  129  A    between atoms: _316  and  _318
REMARK  130  A    between atoms: _318  and  _319
REMARK  131  A    between atoms: _318  and  _321
REMARK  132  A    between atoms: _321  and  _322
REMARK  133  A    between atoms: _324  and  _326
REMARK  134  A    between atoms: _326  and  _327
REMARK  135  A    between atoms: _326  and  _329
REMARK                            x       y       z     vdW  Elec       q    Type
REMARK                         _______ _______ _______ _____ _____    ______ ____
ROOT
ATOM      1  O   HOH     1      39.281   7.661  23.691  0.00  0.00    +0.000 OA
ENDROOT
TORSDOF 0
REMARK  Name = ../refined-set-2016/4g8y/4g8y_pocket.pdb
REMARK  135 active torsions:
REMARK  status: ('A' for Active; 'I' for Inactive)
REMARK    1  A    between atoms: _1  and  _3
REMARK    2  A    between atoms: _3  and  _4
REMARK    3  A    between atoms: _7  and  _9
REMARK    4  A    between atoms: _9  and  _10
REMARK    5  A    between atoms: _9  and  _12
REMARK    6  A    between atoms: _12  and  _13
REMARK    7  A    between atoms: _13  and  _14
REMARK    8  A    between atoms: _14  and  _15
REMARK    9  A    between atoms: _15  and  _16
REMARK   10  A    between atoms: _20  and  _22
REMARK   11  A    between atoms: _22  and  _23
REMARK   12  A    between atoms: _22  and  _25
REMARK   13  A    between atoms: _25  and  _26
REMARK   14  A    between atoms: _32  and  _34
REMARK   15  A    between atoms: _34  and  _35
REMARK   16  A    between atoms: _34  and  _37
REMARK   17  A    between atoms: _37  and  _38
REMARK   18  A    between atoms: _38  and  _39
REMARK   19  A    between atoms: _39  and  _40
REMARK   20  A    between atoms: _49  and  _51
REMARK   21  A    between atoms: _51  and  _52
REMARK   22  A    between atoms: _51  and  _54
REMARK   23  A    between atoms: _54  and  _55
REMARK   24  A    between atoms: _55  and  _56
REMARK   25  A    between atoms: _61  and  _63
REMARK   26  A    between atoms: _63  and  _64
REMARK   27  A    between atoms: _63  and  _66
REMARK   28  A    between atoms: _66  and  _67
REMARK   29  A    between atoms: _72  and  _74
REMARK   30  A    between atoms: _74  and  _75
REMARK   31  A    between atoms: _74  and  _77
REMARK   32  A    between atoms: _77  and  _78
REMARK   33  A    between atoms: _78  and  _79
REMARK   34  A    between atoms: _81  and  _83
REMARK   35  A    between atoms: _83  and  _84
REMARK   36  A    between atoms: _83  and  _86
REMARK   37  A    between atoms: _86  and  _87
REMARK   38  A    between atoms: _90  and  _92
REMARK   39  A    between atoms: _92  and  _93
REMARK   40  A    between atoms: _92  and  _95
REMARK   41  A    between atoms: _95  and  _96
REMARK   42  A    between atoms: _96  and  _97
REMARK   43  A    between atoms: _97  and  _98
REMARK   44  A    between atoms: _107  and  _109
REMARK   45  A    between atoms: _109  and  _110
REMARK   46  A    between atoms: _109  and  _112
REMARK   47  A    between atoms: _112  and  _113
REMARK   48  A    between atoms: _113  and  _114
REMARK   49  A    between atoms: _114  and  _115
REMARK   50  A    between atoms: _115  and  _116
REMARK   51  A    between atoms: _121  and  _122
REMARK   52  A    between atoms: _127  and  _129
REMARK   53  A    between atoms: _129  and  _130
REMARK   54  A    between atoms: _129  and  _132
REMARK   55  A    between atoms: _135  and  _137
REMARK   56  A    between atoms: _137  and  _138
REMARK   57  A    between atoms: _137  and  _140
REMARK   58  A    between atoms: _140  and  _141
REMARK   59  A    between atoms: _146  and  _148
REMARK   60  A    between atoms: _148  and  _149
REMARK   61  A    between atoms: _148  and  _151
REMARK   62  A    between atoms: _151  and  _152
REMARK   63  A    between atoms: _155  and  _157
REMARK   64  A    between atoms: _157  and  _158
REMARK   65  A    between atoms: _157  and  _160
REMARK   66  A    between atoms: _160  and  _161
REMARK   67  A    between atoms: _167  and  _169
REMARK   68  A    between atoms: _169  and  _170
REMARK   69  A    between atoms: _169  and  _172
REMARK   70  A    between atoms: _172  and  _173
REMARK   71  A    between atoms: _173  and  _174
REMARK   72  A    between atoms: _174  and  _175
REMARK   73  A    between atoms: _175  and  _176
REMARK   74  A    between atoms: _180  and  _182
REMARK   75  A    between atoms: _182  and  _183
REMARK   76  A    between atoms: _182  and  _185
REMARK   77  A    between atoms: _185  and  _186
REMARK   78  A    between atoms: _191  and  _193
REMARK   79  A    between atoms: _193  and  _194
REMARK   80  A    between atoms: _193  and  _196
REMARK   81  A    between atoms: _196  and  _197
REMARK   82  A    between atoms: _200  and  _202
REMARK   83  A    between atoms: _202  and  _203
REMARK   84  A    between atoms: _202  and  _205
REMARK   85  A    between atoms: _205  and  _206
REMARK   86  A    between atoms: _209  and  _211
REMARK   87  A    between atoms: _211  and  _212
REMARK   88  A    between atoms: _211  and  _214
REMARK   89  A    between atoms: _214  and  _215
REMARK   90  A    between atoms: _218  and  _220
REMARK   91  A    between atoms: _220  and  _221
REMARK   92  A    between atoms: _220  and  _223
REMARK   93  A    between atoms: _225  and  _227
REMARK   94  A    between atoms: _227  and  _228
REMARK   95  A    between atoms: _227  and  _230
REMARK   96  A    between atoms: _230  and  _231
REMARK   97  A    between atoms: _231  and  _232
REMARK   98  A    between atoms: _232  and  _233
REMARK   99  A    between atoms: _242  and  _244
REMARK  100  A    between atoms: _244  and  _245
REMARK  101  A    between atoms: _244  and  _247
REMARK  102  A    between atoms: _247  and  _248
REMARK  103  A    between atoms: _248  and  _249
REMARK  104  A    between atoms: _249  and  _250
REMARK  105  A    between atoms: _250  and  _251
REMARK  106  A    between atoms: _255  and  _257
REMARK  107  A    between atoms: _257  and  _258
REMARK  108  A    between atoms: _257  and  _260
REMARK  109  A    between atoms: _260  and  _261
REMARK  110  A    between atoms: _264  and  _266
REMARK  111  A    between atoms: _266  and  _267
REMARK  112  A    between atoms: _270  and  _272
REMARK  113  A    between atoms: _272  and  _273
REMARK  114  A    between atoms: _272  and  _275
REMARK  115  A    between atoms: _278  and  _280
REMARK  116  A    between atoms: _280  and  _281
REMARK  117  A    between atoms: _280  and  _283
REMARK  118  A    between atoms: _283  and  _284
REMARK  119  A    between atoms: _289  and  _291
REMARK  120  A    between atoms: _291  and  _292
REMARK  121  A    between atoms: _291  and  _294
REMARK  122  A    between atoms: _294  and  _295
REMARK  123  A    between atoms: _301  and  _303
REMARK  124  A    between atoms: _303  and  _304
REMARK  125  A    between atoms: _303  and  _306
REMARK  126  A    between atoms: _306  and  _307
REMARK  127  A    between atoms: _310  and  _312
REMARK  128  A    between atoms: _312  and  _313
REMARK  129  A    between atoms: _316  and  _318
REMARK  130  A    between atoms: _318  and  _319
REMARK  131  A    between atoms: _318  and  _321
REMARK  132  A    between atoms: _321  and  _322
REMARK  133  A    between atoms: _324  and  _326
REMARK  134  A    between atoms: _326  and  _327
REMARK  135  A    between atoms: _326  and  _329
REMARK                            x       y       z     vdW  Elec       q    Type
REMARK                         _______ _______ _______ _____ _____    ______ ____
ROOT
ATOM      1  O   HOH     1      36.785  -9.469  20.968  0.00  0.00    +0.000 OA
ENDROOT
TORSDOF 0
REMARK  Name = ../refined-set-2016/4g8y/4g8y_pocket.pdb
REMARK  135 active torsions:
REMARK  status: ('A' for Active; 'I' for Inactive)
REMARK    1  A    between atoms: _1  and  _3
REMARK    2  A    between atoms: _3  and  _4
REMARK    3  A    between atoms: _7  and  _9
REMARK    4  A    between atoms: _9  and  _10
REMARK    5  A    between atoms: _9  and  _12
REMARK    6  A    between atoms: _12  and  _13
REMARK    7  A    between atoms: _13  and  _14
REMARK    8  A    between atoms: _14  and  _15
REMARK    9  A    between atoms: _15  and  _16
REMARK   10  A    between atoms: _20  and  _22
REMARK   11  A    between atoms: _22  and  _23
REMARK   12  A    between atoms: _22  and  _25
REMARK   13  A    between atoms: _25  and  _26
REMARK   14  A    between atoms: _32  and  _34
REMARK   15  A    between atoms: _34  and  _35
REMARK   16  A    between atoms: _34  and  _37
REMARK   17  A    between atoms: _37  and  _38
REMARK   18  A    between atoms: _38  and  _39
REMARK   19  A    between atoms: _39  and  _40
REMARK   20  A    between atoms: _49  and  _51
REMARK   21  A    between atoms: _51  and  _52
REMARK   22  A    between atoms: _51  and  _54
REMARK   23  A    between atoms: _54  and  _55
REMARK   24  A    between atoms: _55  and  _56
REMARK   25  A    between atoms: _61  and  _63
REMARK   26  A    between atoms: _63  and  _64
REMARK   27  A    between atoms: _63  and  _66
REMARK   28  A    between atoms: _66  and  _67
REMARK   29  A    between atoms: _72  and  _74
REMARK   30  A    between atoms: _74  and  _75
REMARK   31  A    between atoms: _74  and  _77
REMARK   32  A    between atoms: _77  and  _78
REMARK   33  A    between atoms: _78  and  _79
REMARK   34  A    between atoms: _81  and  _83
REMARK   35  A    between atoms: _83  and  _84
REMARK   36  A    between atoms: _83  and  _86
REMARK   37  A    between atoms: _86  and  _87
REMARK   38  A    between atoms: _90  and  _92
REMARK   39  A    between atoms: _92  and  _93
REMARK   40  A    between atoms: _92  and  _95
REMARK   41  A    between atoms: _95  and  _96
REMARK   42  A    between atoms: _96  and  _97
REMARK   43  A    between atoms: _97  and  _98
REMARK   44  A    between atoms: _107  and  _109
REMARK   45  A    between atoms: _109  and  _110
REMARK   46  A    between atoms: _109  and  _112
REMARK   47  A    between atoms: _112  and  _113
REMARK   48  A    between atoms: _113  and  _114
REMARK   49  A    between atoms: _114  and  _115
REMARK   50  A    between atoms: _115  and  _116
REMARK   51  A    between atoms: _121  and  _122
REMARK   52  A    between atoms: _127  and  _129
REMARK   53  A    between atoms: _129  and  _130
REMARK   54  A    between atoms: _129  and  _132
REMARK   55  A    between atoms: _135  and  _137
REMARK   56  A    between atoms: _137  and  _138
REMARK   57  A    between atoms: _137  and  _140
REMARK   58  A    between atoms: _140  and  _141
REMARK   59  A    between atoms: _146  and  _148
REMARK   60  A    between atoms: _148  and  _149
REMARK   61  A    between atoms: _148  and  _151
REMARK   62  A    between atoms: _151  and  _152
REMARK   63  A    between atoms: _155  and  _157
REMARK   64  A    between atoms: _157  and  _158
REMARK   65  A    between atoms: _157  and  _160
REMARK   66  A    between atoms: _160  and  _161
REMARK   67  A    between atoms: _167  and  _169
REMARK   68  A    between atoms: _169  and  _170
REMARK   69  A    between atoms: _169  and  _172
REMARK   70  A    between atoms: _172  and  _173
REMARK   71  A    between atoms: _173  and  _174
REMARK   72  A    between atoms: _174  and  _175
REMARK   73  A    between atoms: _175  and  _176
REMARK   74  A    between atoms: _180  and  _182
REMARK   75  A    between atoms: _182  and  _183
REMARK   76  A    between atoms: _182  and  _185
REMARK   77  A    between atoms: _185  and  _186
REMARK   78  A    between atoms: _191  and  _193
REMARK   79  A    between atoms: _193  and  _194
REMARK   80  A    between atoms: _193  and  _196
REMARK   81  A    between atoms: _196  and  _197
REMARK   82  A    between atoms: _200  and  _202
REMARK   83  A    between atoms: _202  and  _203
REMARK   84  A    between atoms: _202  and  _205
REMARK   85  A    between atoms: _205  and  _206
REMARK   86  A    between atoms: _209  and  _211
REMARK   87  A    between atoms: _211  and  _212
REMARK   88  A    between atoms: _211  and  _214
REMARK   89  A    between atoms: _214  and  _215
REMARK   90  A    between atoms: _218  and  _220
REMARK   91  A    between atoms: _220  and  _221
REMARK   92  A    between atoms: _220  and  _223
REMARK   93  A    between atoms: _225  and  _227
REMARK   94  A    between atoms: _227  and  _228
REMARK   95  A    between atoms: _227  and  _230
REMARK   96  A    between atoms: _230  and  _231
REMARK   97  A    between atoms: _231  and  _232
REMARK   98  A    between atoms: _232  and  _233
REMARK   99  A    between atoms: _242  and  _244
REMARK  100  A    between atoms: _244  and  _245
REMARK  101  A    between atoms: _244  and  _247
REMARK  102  A    between atoms: _247  and  _248
REMARK  103  A    between atoms: _248  and  _249
REMARK  104  A    between atoms: _249  and  _250
REMARK  105  A    between atoms: _250  and  _251
REMARK  106  A    between atoms: _255  and  _257
REMARK  107  A    between atoms: _257  and  _258
REMARK  108  A    between atoms: _257  and  _260
REMARK  109  A    between atoms: _260  and  _261
REMARK  110  A    between atoms: _264  and  _266
REMARK  111  A    between atoms: _266  and  _267
REMARK  112  A    between atoms: _270  and  _272
REMARK  113  A    between atoms: _272  and  _273
REMARK  114  A    between atoms: _272  and  _275
REMARK  115  A    between atoms: _278  and  _280
REMARK  116  A    between atoms: _280  and  _281
REMARK  117  A    between atoms: _280  and  _283
REMARK  118  A    between atoms: _283  and  _284
REMARK  119  A    between atoms: _289  and  _291
REMARK  120  A    between atoms: _291  and  _292
REMARK  121  A    between atoms: _291  and  _294
REMARK  122  A    between atoms: _294  and  _295
REMARK  123  A    between atoms: _301  and  _303
REMARK  124  A    between atoms: _303  and  _304
REMARK  125  A    between atoms: _303  and  _306
REMARK  126  A    between atoms: _306  and  _307
REMARK  127  A    between atoms: _310  and  _312
REMARK  128  A    between atoms: _312  and  _313
REMARK  129  A    between atoms: _316  and  _318
REMARK  130  A    between atoms: _318  and  _319
REMARK  131  A    between atoms: _318  and  _321
REMARK  132  A    between atoms: _321  and  _322
REMARK  133  A    between atoms: _324  and  _326
REMARK  134  A    between atoms: _326  and  _327
REMARK  135  A    between atoms: _326  and  _329
REMARK                            x       y       z     vdW  Elec       q    Type
REMARK                         _______ _______ _______ _____ _____    ______ ____
ROOT
ATOM      1  O   HOH     1      39.798  -7.739  17.639  0.00  0.00    +0.000 OA
ENDROOT
TORSDOF 0
REMARK  Name = ../refined-set-2016/4g8y/4g8y_pocket.pdb
REMARK  135 active torsions:
REMARK  status: ('A' for Active; 'I' for Inactive)
REMARK    1  A    between atoms: _1  and  _3
REMARK    2  A    between atoms: _3  and  _4
REMARK    3  A    between atoms: _7  and  _9
REMARK    4  A    between atoms: _9  and  _10
REMARK    5  A    between atoms: _9  and  _12
REMARK    6  A    between atoms: _12  and  _13
REMARK    7  A    between atoms: _13  and  _14
REMARK    8  A    between atoms: _14  and  _15
REMARK    9  A    between atoms: _15  and  _16
REMARK   10  A    between atoms: _20  and  _22
REMARK   11  A    between atoms: _22  and  _23
REMARK   12  A    between atoms: _22  and  _25
REMARK   13  A    between atoms: _25  and  _26
REMARK   14  A    between atoms: _32  and  _34
REMARK   15  A    between atoms: _34  and  _35
REMARK   16  A    between atoms: _34  and  _37
REMARK   17  A    between atoms: _37  and  _38
REMARK   18  A    between atoms: _38  and  _39
REMARK   19  A    between atoms: _39  and  _40
REMARK   20  A    between atoms: _49  and  _51
REMARK   21  A    between atoms: _51  and  _52
REMARK   22  A    between atoms: _51  and  _54
REMARK   23  A    between atoms: _54  and  _55
REMARK   24  A    between atoms: _55  and  _56
REMARK   25  A    between atoms: _61  and  _63
REMARK   26  A    between atoms: _63  and  _64
REMARK   27  A    between atoms: _63  and  _66
REMARK   28  A    between atoms: _66  and  _67
REMARK   29  A    between atoms: _72  and  _74
REMARK   30  A    between atoms: _74  and  _75
REMARK   31  A    between atoms: _74  and  _77
REMARK   32  A    between atoms: _77  and  _78
REMARK   33  A    between atoms: _78  and  _79
REMARK   34  A    between atoms: _81  and  _83
REMARK   35  A    between atoms: _83  and  _84
REMARK   36  A    between atoms: _83  and  _86
REMARK   37  A    between atoms: _86  and  _87
REMARK   38  A    between atoms: _90  and  _92
REMARK   39  A    between atoms: _92  and  _93
REMARK   40  A    between atoms: _92  and  _95
REMARK   41  A    between atoms: _95  and  _96
REMARK   42  A    between atoms: _96  and  _97
REMARK   43  A    between atoms: _97  and  _98
REMARK   44  A    between atoms: _107  and  _109
REMARK   45  A    between atoms: _109  and  _110
REMARK   46  A    between atoms: _109  and  _112
REMARK   47  A    between atoms: _112  and  _113
REMARK   48  A    between atoms: _113  and  _114
REMARK   49  A    between atoms: _114  and  _115
REMARK   50  A    between atoms: _115  and  _116
REMARK   51  A    between atoms: _121  and  _122
REMARK   52  A    between atoms: _127  and  _129
REMARK   53  A    between atoms: _129  and  _130
REMARK   54  A    between atoms: _129  and  _132
REMARK   55  A    between atoms: _135  and  _137
REMARK   56  A    between atoms: _137  and  _138
REMARK   57  A    between atoms: _137  and  _140
REMARK   58  A    between atoms: _140  and  _141
REMARK   59  A    between atoms: _146  and  _148
REMARK   60  A    between atoms: _148  and  _149
REMARK   61  A    between atoms: _148  and  _151
REMARK   62  A    between atoms: _151  and  _152
REMARK   63  A    between atoms: _155  and  _157
REMARK   64  A    between atoms: _157  and  _158
REMARK   65  A    between atoms: _157  and  _160
REMARK   66  A    between atoms: _160  and  _161
REMARK   67  A    between atoms: _167  and  _169
REMARK   68  A    between atoms: _169  and  _170
REMARK   69  A    between atoms: _169  and  _172
REMARK   70  A    between atoms: _172  and  _173
REMARK   71  A    between atoms: _173  and  _174
REMARK   72  A    between atoms: _174  and  _175
REMARK   73  A    between atoms: _175  and  _176
REMARK   74  A    between atoms: _180  and  _182
REMARK   75  A    between atoms: _182  and  _183
REMARK   76  A    between atoms: _182  and  _185
REMARK   77  A    between atoms: _185  and  _186
REMARK   78  A    between atoms: _191  and  _193
REMARK   79  A    between atoms: _193  and  _194
REMARK   80  A    between atoms: _193  and  _196
REMARK   81  A    between atoms: _196  and  _197
REMARK   82  A    between atoms: _200  and  _202
REMARK   83  A    between atoms: _202  and  _203
REMARK   84  A    between atoms: _202  and  _205
REMARK   85  A    between atoms: _205  and  _206
REMARK   86  A    between atoms: _209  and  _211
REMARK   87  A    between atoms: _211  and  _212
REMARK   88  A    between atoms: _211  and  _214
REMARK   89  A    between atoms: _214  and  _215
REMARK   90  A    between atoms: _218  and  _220
REMARK   91  A    between atoms: _220  and  _221
REMARK   92  A    between atoms: _220  and  _223
REMARK   93  A    between atoms: _225  and  _227
REMARK   94  A    between atoms: _227  and  _228
REMARK   95  A    between atoms: _227  and  _230
REMARK   96  A    between atoms: _230  and  _231
REMARK   97  A    between atoms: _231  and  _232
REMARK   98  A    between atoms: _232  and  _233
REMARK   99  A    between atoms: _242  and  _244
REMARK  100  A    between atoms: _244  and  _245
REMARK  101  A    between atoms: _244  and  _247
REMARK  102  A    between atoms: _247  and  _248
REMARK  103  A    between atoms: _248  and  _249
REMARK  104  A    between atoms: _249  and  _250
REMARK  105  A    between atoms: _250  and  _251
REMARK  106  A    between atoms: _255  and  _257
REMARK  107  A    between atoms: _257  and  _258
REMARK  108  A    between atoms: _257  and  _260
REMARK  109  A    between atoms: _260  and  _261
REMARK  110  A    between atoms: _264  and  _266
REMARK  111  A    between atoms: _266  and  _267
REMARK  112  A    between atoms: _270  and  _272
REMARK  113  A    between atoms: _272  and  _273
REMARK  114  A    between atoms: _272  and  _275
REMARK  115  A    between atoms: _278  and  _280
REMARK  116  A    between atoms: _280  and  _281
REMARK  117  A    between atoms: _280  and  _283
REMARK  118  A    between atoms: _283  and  _284
REMARK  119  A    between atoms: _289  and  _291
REMARK  120  A    between atoms: _291  and  _292
REMARK  121  A    between atoms: _291  and  _294
REMARK  122  A    between atoms: _294  and  _295
REMARK  123  A    between atoms: _301  and  _303
REMARK  124  A    between atoms: _303  and  _304
REMARK  125  A    between atoms: _303  and  _306
REMARK  126  A    between atoms: _306  and  _307
REMARK  127  A    between atoms: _310  and  _312
REMARK  128  A    between atoms: _312  and  _313
REMARK  129  A    between atoms: _316  and  _318
REMARK  130  A    between atoms: _318  and  _319
REMARK  131  A    between atoms: _318  and  _321
REMARK  132  A    between atoms: _321  and  _322
REMARK  133  A    between atoms: _324  and  _326
REMARK  134  A    between atoms: _326  and  _327
REMARK  135  A    between atoms: _326  and  _329
REMARK                            x       y       z     vdW  Elec       q    Type
REMARK                         _______ _______ _______ _____ _____    ______ ____
ROOT
ATOM      1  O   HOH     1      42.307  -7.618  20.913  0.00  0.00    +0.000 OA
ENDROOT
TORSDOF 0
REMARK  Name = ../refined-set-2016/4g8y/4g8y_pocket.pdb
REMARK  135 active torsions:
REMARK  status: ('A' for Active; 'I' for Inactive)
REMARK    1  A    between atoms: _1  and  _3
REMARK    2  A    between atoms: _3  and  _4
REMARK    3  A    between atoms: _7  and  _9
REMARK    4  A    between atoms: _9  and  _10
REMARK    5  A    between atoms: _9  and  _12
REMARK    6  A    between atoms: _12  and  _13
REMARK    7  A    between atoms: _13  and  _14
REMARK    8  A    between atoms: _14  and  _15
REMARK    9  A    between atoms: _15  and  _16
REMARK   10  A    between atoms: _20  and  _22
REMARK   11  A    between atoms: _22  and  _23
REMARK   12  A    between atoms: _22  and  _25
REMARK   13  A    between atoms: _25  and  _26
REMARK   14  A    between atoms: _32  and  _34
REMARK   15  A    between atoms: _34  and  _35
REMARK   16  A    between atoms: _34  and  _37
REMARK   17  A    between atoms: _37  and  _38
REMARK   18  A    between atoms: _38  and  _39
REMARK   19  A    between atoms: _39  and  _40
REMARK   20  A    between atoms: _49  and  _51
REMARK   21  A    between atoms: _51  and  _52
REMARK   22  A    between atoms: _51  and  _54
REMARK   23  A    between atoms: _54  and  _55
REMARK   24  A    between atoms: _55  and  _56
REMARK   25  A    between atoms: _61  and  _63
REMARK   26  A    between atoms: _63  and  _64
REMARK   27  A    between atoms: _63  and  _66
REMARK   28  A    between atoms: _66  and  _67
REMARK   29  A    between atoms: _72  and  _74
REMARK   30  A    between atoms: _74  and  _75
REMARK   31  A    between atoms: _74  and  _77
REMARK   32  A    between atoms: _77  and  _78
REMARK   33  A    between atoms: _78  and  _79
REMARK   34  A    between atoms: _81  and  _83
REMARK   35  A    between atoms: _83  and  _84
REMARK   36  A    between atoms: _83  and  _86
REMARK   37  A    between atoms: _86  and  _87
REMARK   38  A    between atoms: _90  and  _92
REMARK   39  A    between atoms: _92  and  _93
REMARK   40  A    between atoms: _92  and  _95
REMARK   41  A    between atoms: _95  and  _96
REMARK   42  A    between atoms: _96  and  _97
REMARK   43  A    between atoms: _97  and  _98
REMARK   44  A    between atoms: _107  and  _109
REMARK   45  A    between atoms: _109  and  _110
REMARK   46  A    between atoms: _109  and  _112
REMARK   47  A    between atoms: _112  and  _113
REMARK   48  A    between atoms: _113  and  _114
REMARK   49  A    between atoms: _114  and  _115
REMARK   50  A    between atoms: _115  and  _116
REMARK   51  A    between atoms: _121  and  _122
REMARK   52  A    between atoms: _127  and  _129
REMARK   53  A    between atoms: _129  and  _130
REMARK   54  A    between atoms: _129  and  _132
REMARK   55  A    between atoms: _135  and  _137
REMARK   56  A    between atoms: _137  and  _138
REMARK   57  A    between atoms: _137  and  _140
REMARK   58  A    between atoms: _140  and  _141
REMARK   59  A    between atoms: _146  and  _148
REMARK   60  A    between atoms: _148  and  _149
REMARK   61  A    between atoms: _148  and  _151
REMARK   62  A    between atoms: _151  and  _152
REMARK   63  A    between atoms: _155  and  _157
REMARK   64  A    between atoms: _157  and  _158
REMARK   65  A    between atoms: _157  and  _160
REMARK   66  A    between atoms: _160  and  _161
REMARK   67  A    between atoms: _167  and  _169
REMARK   68  A    between atoms: _169  and  _170
REMARK   69  A    between atoms: _169  and  _172
REMARK   70  A    between atoms: _172  and  _173
REMARK   71  A    between atoms: _173  and  _174
REMARK   72  A    between atoms: _174  and  _175
REMARK   73  A    between atoms: _175  and  _176
REMARK   74  A    between atoms: _180  and  _182
REMARK   75  A    between atoms: _182  and  _183
REMARK   76  A    between atoms: _182  and  _185
REMARK   77  A    between atoms: _185  and  _186
REMARK   78  A    between atoms: _191  and  _193
REMARK   79  A    between atoms: _193  and  _194
REMARK   80  A    between atoms: _193  and  _196
REMARK   81  A    between atoms: _196  and  _197
REMARK   82  A    between atoms: _200  and  _202
REMARK   83  A    between atoms: _202  and  _203
REMARK   84  A    between atoms: _202  and  _205
REMARK   85  A    between atoms: _205  and  _206
REMARK   86  A    between atoms: _209  and  _211
REMARK   87  A    between atoms: _211  and  _212
REMARK   88  A    between atoms: _211  and  _214
REMARK   89  A    between atoms: _214  and  _215
REMARK   90  A    between atoms: _218  and  _220
REMARK   91  A    between atoms: _220  and  _221
REMARK   92  A    between atoms: _220  and  _223
REMARK   93  A    between atoms: _225  and  _227
REMARK   94  A    between atoms: _227  and  _228
REMARK   95  A    between atoms: _227  and  _230
REMARK   96  A    between atoms: _230  and  _231
REMARK   97  A    between atoms: _231  and  _232
REMARK   98  A    between atoms: _232  and  _233
REMARK   99  A    between atoms: _242  and  _244
REMARK  100  A    between atoms: _244  and  _245
REMARK  101  A    between atoms: _244  and  _247
REMARK  102  A    between atoms: _247  and  _248
REMARK  103  A    between atoms: _248  and  _249
REMARK  104  A    between atoms: _249  and  _250
REMARK  105  A    between atoms: _250  and  _251
REMARK  106  A    between atoms: _255  and  _257
REMARK  107  A    between atoms: _257  and  _258
REMARK  108  A    between atoms: _257  and  _260
REMARK  109  A    between atoms: _260  and  _261
REMARK  110  A    between atoms: _264  and  _266
REMARK  111  A    between atoms: _266  and  _267
REMARK  112  A    between atoms: _270  and  _272
REMARK  113  A    between atoms: _272  and  _273
REMARK  114  A    between atoms: _272  and  _275
REMARK  115  A    between atoms: _278  and  _280
REMARK  116  A    between atoms: _280  and  _281
REMARK  117  A    between atoms: _280  and  _283
REMARK  118  A    between atoms: _283  and  _284
REMARK  119  A    between atoms: _289  and  _291
REMARK  120  A    between atoms: _291  and  _292
REMARK  121  A    between atoms: _291  and  _294
REMARK  122  A    between atoms: _294  and  _295
REMARK  123  A    between atoms: _301  and  _303
REMARK  124  A    between atoms: _303  and  _304
REMARK  125  A    between atoms: _303  and  _306
REMARK  126  A    between atoms: _306  and  _307
REMARK  127  A    between atoms: _310  and  _312
REMARK  128  A    between atoms: _312  and  _313
REMARK  129  A    between atoms: _316  and  _318
REMARK  130  A    between atoms: _318  and  _319
REMARK  131  A    between atoms: _318  and  _321
REMARK  132  A    between atoms: _321  and  _322
REMARK  133  A    between atoms: _324  and  _326
REMARK  134  A    between atoms: _326  and  _327
REMARK  135  A    between atoms: _326  and  _329
REMARK                            x       y       z     vdW  Elec       q    Type
REMARK                         _______ _______ _______ _____ _____    ______ ____
ROOT
ATOM      1  O   HOH     1      33.061  10.006  19.463  0.00  0.00    +0.000 OA
ENDROOT
TORSDOF 0
REMARK  Name = ../refined-set-2016/4g8y/4g8y_pocket.pdb
REMARK  135 active torsions:
REMARK  status: ('A' for Active; 'I' for Inactive)
REMARK    1  A    between atoms: _1  and  _3
REMARK    2  A    between atoms: _3  and  _4
REMARK    3  A    between atoms: _7  and  _9
REMARK    4  A    between atoms: _9  and  _10
REMARK    5  A    between atoms: _9  and  _12
REMARK    6  A    between atoms: _12  and  _13
REMARK    7  A    between atoms: _13  and  _14
REMARK    8  A    between atoms: _14  and  _15
REMARK    9  A    between atoms: _15  and  _16
REMARK   10  A    between atoms: _20  and  _22
REMARK   11  A    between atoms: _22  and  _23
REMARK   12  A    between atoms: _22  and  _25
REMARK   13  A    between atoms: _25  and  _26
REMARK   14  A    between atoms: _32  and  _34
REMARK   15  A    between atoms: _34  and  _35
REMARK   16  A    between atoms: _34  and  _37
REMARK   17  A    between atoms: _37  and  _38
REMARK   18  A    between atoms: _38  and  _39
REMARK   19  A    between atoms: _39  and  _40
REMARK   20  A    between atoms: _49  and  _51
REMARK   21  A    between atoms: _51  and  _52
REMARK   22  A    between atoms: _51  and  _54
REMARK   23  A    between atoms: _54  and  _55
REMARK   24  A    between atoms: _55  and  _56
REMARK   25  A    between atoms: _61  and  _63
REMARK   26  A    between atoms: _63  and  _64
REMARK   27  A    between atoms: _63  and  _66
REMARK   28  A    between atoms: _66  and  _67
REMARK   29  A    between atoms: _72  and  _74
REMARK   30  A    between atoms: _74  and  _75
REMARK   31  A    between atoms: _74  and  _77
REMARK   32  A    between atoms: _77  and  _78
REMARK   33  A    between atoms: _78  and  _79
REMARK   34  A    between atoms: _81  and  _83
REMARK   35  A    between atoms: _83  and  _84
REMARK   36  A    between atoms: _83  and  _86
REMARK   37  A    between atoms: _86  and  _87
REMARK   38  A    between atoms: _90  and  _92
REMARK   39  A    between atoms: _92  and  _93
REMARK   40  A    between atoms: _92  and  _95
REMARK   41  A    between atoms: _95  and  _96
REMARK   42  A    between atoms: _96  and  _97
REMARK   43  A    between atoms: _97  and  _98
REMARK   44  A    between atoms: _107  and  _109
REMARK   45  A    between atoms: _109  and  _110
REMARK   46  A    between atoms: _109  and  _112
REMARK   47  A    between atoms: _112  and  _113
REMARK   48  A    between atoms: _113  and  _114
REMARK   49  A    between atoms: _114  and  _115
REMARK   50  A    between atoms: _115  and  _116
REMARK   51  A    between atoms: _121  and  _122
REMARK   52  A    between atoms: _127  and  _129
REMARK   53  A    between atoms: _129  and  _130
REMARK   54  A    between atoms: _129  and  _132
REMARK   55  A    between atoms: _135  and  _137
REMARK   56  A    between atoms: _137  and  _138
REMARK   57  A    between atoms: _137  and  _140
REMARK   58  A    between atoms: _140  and  _141
REMARK   59  A    between atoms: _146  and  _148
REMARK   60  A    between atoms: _148  and  _149
REMARK   61  A    between atoms: _148  and  _151
REMARK   62  A    between atoms: _151  and  _152
REMARK   63  A    between atoms: _155  and  _157
REMARK   64  A    between atoms: _157  and  _158
REMARK   65  A    between atoms: _157  and  _160
REMARK   66  A    between atoms: _160  and  _161
REMARK   67  A    between atoms: _167  and  _169
REMARK   68  A    between atoms: _169  and  _170
REMARK   69  A    between atoms: _169  and  _172
REMARK   70  A    between atoms: _172  and  _173
REMARK   71  A    between atoms: _173  and  _174
REMARK   72  A    between atoms: _174  and  _175
REMARK   73  A    between atoms: _175  and  _176
REMARK   74  A    between atoms: _180  and  _182
REMARK   75  A    between atoms: _182  and  _183
REMARK   76  A    between atoms: _182  and  _185
REMARK   77  A    between atoms: _185  and  _186
REMARK   78  A    between atoms: _191  and  _193
REMARK   79  A    between atoms: _193  and  _194
REMARK   80  A    between atoms: _193  and  _196
REMARK   81  A    between atoms: _196  and  _197
REMARK   82  A    between atoms: _200  and  _202
REMARK   83  A    between atoms: _202  and  _203
REMARK   84  A    between atoms: _202  and  _205
REMARK   85  A    between atoms: _205  and  _206
REMARK   86  A    between atoms: _209  and  _211
REMARK   87  A    between atoms: _211  and  _212
REMARK   88  A    between atoms: _211  and  _214
REMARK   89  A    between atoms: _214  and  _215
REMARK   90  A    between atoms: _218  and  _220
REMARK   91  A    between atoms: _220  and  _221
REMARK   92  A    between atoms: _220  and  _223
REMARK   93  A    between atoms: _225  and  _227
REMARK   94  A    between atoms: _227  and  _228
REMARK   95  A    between atoms: _227  and  _230
REMARK   96  A    between atoms: _230  and  _231
REMARK   97  A    between atoms: _231  and  _232
REMARK   98  A    between atoms: _232  and  _233
REMARK   99  A    between atoms: _242  and  _244
REMARK  100  A    between atoms: _244  and  _245
REMARK  101  A    between atoms: _244  and  _247
REMARK  102  A    between atoms: _247  and  _248
REMARK  103  A    between atoms: _248  and  _249
REMARK  104  A    between atoms: _249  and  _250
REMARK  105  A    between atoms: _250  and  _251
REMARK  106  A    between atoms: _255  and  _257
REMARK  107  A    between atoms: _257  and  _258
REMARK  108  A    between atoms: _257  and  _260
REMARK  109  A    between atoms: _260  and  _261
REMARK  110  A    between atoms: _264  and  _266
REMARK  111  A    between atoms: _266  and  _267
REMARK  112  A    between atoms: _270  and  _272
REMARK  113  A    between atoms: _272  and  _273
REMARK  114  A    between atoms: _272  and  _275
REMARK  115  A    between atoms: _278  and  _280
REMARK  116  A    between atoms: _280  and  _281
REMARK  117  A    between atoms: _280  and  _283
REMARK  118  A    between atoms: _283  and  _284
REMARK  119  A    between atoms: _289  and  _291
REMARK  120  A    between atoms: _291  and  _292
REMARK  121  A    between atoms: _291  and  _294
REMARK  122  A    between atoms: _294  and  _295
REMARK  123  A    between atoms: _301  and  _303
REMARK  124  A    between atoms: _303  and  _304
REMARK  125  A    between atoms: _303  and  _306
REMARK  126  A    between atoms: _306  and  _307
REMARK  127  A    between atoms: _310  and  _312
REMARK  128  A    between atoms: _312  and  _313
REMARK  129  A    between atoms: _316  and  _318
REMARK  130  A    between atoms: _318  and  _319
REMARK  131  A    between atoms: _318  and  _321
REMARK  132  A    between atoms: _321  and  _322
REMARK  133  A    between atoms: _324  and  _326
REMARK  134  A    between atoms: _326  and  _327
REMARK  135  A    between atoms: _326  and  _329
REMARK                            x       y       z     vdW  Elec       q    Type
REMARK                         _______ _______ _______ _____ _____    ______ ____
ROOT
ATOM      1  O   HOH     1      34.861  10.744  19.580  0.00  0.00    +0.000 OA
ENDROOT
TORSDOF 0
