REMARK  Name = ../refined-set-2016/3pwm/3pwm_pocket.pdb
REMARK  230 active torsions:
REMARK  status: ('A' for Active; 'I' for Inactive)
REMARK    1  A    between atoms: _1  and  _3
REMARK    2  A    between atoms: _3  and  _4
REMARK    3  A    between atoms: _3  and  _6
REMARK    4  A    between atoms: _6  and  _7
REMARK    5  A    between atoms: _7  and  _8
REMARK    6  A    between atoms: _8  and  _9
REMARK    7  A    between atoms: _18  and  _20
REMARK    8  A    between atoms: _20  and  _21
REMARK    9  A    between atoms: _20  and  _23
REMARK   10  A    between atoms: _23  and  _24
REMARK   11  A    between atoms: _27  and  _29
REMARK   12  A    between atoms: _29  and  _30
REMARK   13  A    between atoms: _29  and  _32
REMARK   14  A    between atoms: _32  and  _33
REMARK   15  A    between atoms: _36  and  _38
REMARK   16  A    between atoms: _38  and  _39
REMARK   17  A    between atoms: _38  and  _41
REMARK   18  A    between atoms: _41  and  _42
REMARK   19  A    between atoms: _45  and  _47
REMARK   20  A    between atoms: _47  and  _48
REMARK   21  A    between atoms: _47  and  _50
REMARK   22  A    between atoms: _50  and  _51
REMARK   23  A    between atoms: _54  and  _56
REMARK   24  A    between atoms: _56  and  _57
REMARK   25  A    between atoms: _59  and  _61
REMARK   26  A    between atoms: _61  and  _62
REMARK   27  A    between atoms: _65  and  _67
REMARK   28  A    between atoms: _67  and  _68
REMARK   29  A    between atoms: _67  and  _70
REMARK   30  A    between atoms: _70  and  _71
REMARK   31  A    between atoms: _74  and  _76
REMARK   32  A    between atoms: _76  and  _77
REMARK   33  A    between atoms: _76  and  _79
REMARK   34  A    between atoms: _79  and  _80
REMARK   35  A    between atoms: _83  and  _85
REMARK   36  A    between atoms: _85  and  _86
REMARK   37  A    between atoms: _85  and  _88
REMARK   38  A    between atoms: _88  and  _89
REMARK   39  A    between atoms: _92  and  _94
REMARK   40  A    between atoms: _94  and  _95
REMARK   41  A    between atoms: _94  and  _97
REMARK   42  A    between atoms: _100  and  _102
REMARK   43  A    between atoms: _102  and  _103
REMARK   44  A    between atoms: _102  and  _105
REMARK   45  A    between atoms: _105  and  _106
REMARK   46  A    between atoms: _106  and  _107
REMARK   47  A    between atoms: _107  and  _108
REMARK   48  A    between atoms: _108  and  _109
REMARK   49  A    between atoms: _113  and  _115
REMARK   50  A    between atoms: _115  and  _116
REMARK   51  A    between atoms: _115  and  _118
REMARK   52  A    between atoms: _118  and  _119
REMARK   53  A    between atoms: _119  and  _120
REMARK   54  A    between atoms: _122  and  _124
REMARK   55  A    between atoms: _124  and  _125
REMARK   56  A    between atoms: _124  and  _127
REMARK   57  A    between atoms: _127  and  _128
REMARK   58  A    between atoms: _131  and  _133
REMARK   59  A    between atoms: _133  and  _134
REMARK   60  A    between atoms: _136  and  _138
REMARK   61  A    between atoms: _138  and  _139
REMARK   62  A    between atoms: _141  and  _143
REMARK   63  A    between atoms: _143  and  _144
REMARK   64  A    between atoms: _143  and  _146
REMARK   65  A    between atoms: _146  and  _147
REMARK   66  A    between atoms: _150  and  _152
REMARK   67  A    between atoms: _152  and  _153
REMARK   68  A    between atoms: _155  and  _157
REMARK   69  A    between atoms: _157  and  _158
REMARK   70  A    between atoms: _160  and  _162
REMARK   71  A    between atoms: _162  and  _163
REMARK   72  A    between atoms: _162  and  _165
REMARK   73  A    between atoms: _165  and  _166
REMARK   74  A    between atoms: _172  and  _174
REMARK   75  A    between atoms: _174  and  _175
REMARK   76  A    between atoms: _174  and  _177
REMARK   77  A    between atoms: _177  and  _178
REMARK   78  A    between atoms: _181  and  _183
REMARK   79  A    between atoms: _183  and  _184
REMARK   80  A    between atoms: _183  and  _186
REMARK   81  A    between atoms: _189  and  _191
REMARK   82  A    between atoms: _191  and  _192
REMARK   83  A    between atoms: _191  and  _194
REMARK   84  A    between atoms: _197  and  _199
REMARK   85  A    between atoms: _199  and  _200
REMARK   86  A    between atoms: _199  and  _202
REMARK   87  A    between atoms: _202  and  _203
REMARK   88  A    between atoms: _207  and  _208
REMARK   89  A    between atoms: _213  and  _215
REMARK   90  A    between atoms: _215  and  _216
REMARK   91  A    between atoms: _215  and  _218
REMARK   92  A    between atoms: _221  and  _223
REMARK   93  A    between atoms: _223  and  _224
REMARK   94  A    between atoms: _223  and  _226
REMARK   95  A    between atoms: _226  and  _227
REMARK   96  A    between atoms: _232  and  _234
REMARK   97  A    between atoms: _234  and  _235
REMARK   98  A    between atoms: _234  and  _237
REMARK   99  A    between atoms: _237  and  _238
REMARK  100  A    between atoms: _241  and  _243
REMARK  101  A    between atoms: _243  and  _244
REMARK  102  A    between atoms: _243  and  _246
REMARK  103  A    between atoms: _246  and  _247
REMARK  104  A    between atoms: _250  and  _252
REMARK  105  A    between atoms: _252  and  _253
REMARK  106  A    between atoms: _255  and  _257
REMARK  107  A    between atoms: _257  and  _258
REMARK  108  A    between atoms: _257  and  _260
REMARK  109  A    between atoms: _260  and  _261
REMARK  110  A    between atoms: _261  and  _262
REMARK  111  A    between atoms: _262  and  _263
REMARK  112  A    between atoms: _272  and  _274
REMARK  113  A    between atoms: _274  and  _275
REMARK  114  A    between atoms: _274  and  _277
REMARK  115  A    between atoms: _277  and  _278
REMARK  116  A    between atoms: _283  and  _285
REMARK  117  A    between atoms: _285  and  _286
REMARK  118  A    between atoms: _285  and  _288
REMARK  119  A    between atoms: _288  and  _289
REMARK  120  A    between atoms: _289  and  _290
REMARK  121  A    between atoms: _290  and  _291
REMARK  122  A    between atoms: _300  and  _302
REMARK  123  A    between atoms: _302  and  _303
REMARK  124  A    between atoms: _302  and  _305
REMARK  125  A    between atoms: _305  and  _306
REMARK  126  A    between atoms: _309  and  _311
REMARK  127  A    between atoms: _311  and  _312
REMARK  128  A    between atoms: _311  and  _314
REMARK  129  A    between atoms: _314  and  _315
REMARK  130  A    between atoms: _318  and  _320
REMARK  131  A    between atoms: _320  and  _321
REMARK  132  A    between atoms: _320  and  _323
REMARK  133  A    between atoms: _323  and  _324
REMARK  134  A    between atoms: _327  and  _329
REMARK  135  A    between atoms: _329  and  _330
REMARK  136  A    between atoms: _329  and  _332
REMARK  137  A    between atoms: _332  and  _333
REMARK  138  A    between atoms: _336  and  _338
REMARK  139  A    between atoms: _338  and  _339
REMARK  140  A    between atoms: _341  and  _343
REMARK  141  A    between atoms: _343  and  _344
REMARK  142  A    between atoms: _347  and  _349
REMARK  143  A    between atoms: _349  and  _350
REMARK  144  A    between atoms: _349  and  _352
REMARK  145  A    between atoms: _352  and  _353
REMARK  146  A    between atoms: _356  and  _358
REMARK  147  A    between atoms: _358  and  _359
REMARK  148  A    between atoms: _358  and  _361
REMARK  149  A    between atoms: _361  and  _362
REMARK  150  A    between atoms: _365  and  _367
REMARK  151  A    between atoms: _367  and  _368
REMARK  152  A    between atoms: _367  and  _370
REMARK  153  A    between atoms: _370  and  _371
REMARK  154  A    between atoms: _374  and  _376
REMARK  155  A    between atoms: _376  and  _377
REMARK  156  A    between atoms: _376  and  _379
REMARK  157  A    between atoms: _382  and  _384
REMARK  158  A    between atoms: _384  and  _385
REMARK  159  A    between atoms: _384  and  _387
REMARK  160  A    between atoms: _387  and  _388
REMARK  161  A    between atoms: _388  and  _389
REMARK  162  A    between atoms: _389  and  _390
REMARK  163  A    between atoms: _390  and  _391
REMARK  164  A    between atoms: _395  and  _397
REMARK  165  A    between atoms: _397  and  _398
REMARK  166  A    between atoms: _397  and  _400
REMARK  167  A    between atoms: _400  and  _401
REMARK  168  A    between atoms: _401  and  _402
REMARK  169  A    between atoms: _404  and  _406
REMARK  170  A    between atoms: _406  and  _407
REMARK  171  A    between atoms: _406  and  _409
REMARK  172  A    between atoms: _409  and  _410
REMARK  173  A    between atoms: _413  and  _415
REMARK  174  A    between atoms: _415  and  _416
REMARK  175  A    between atoms: _418  and  _420
REMARK  176  A    between atoms: _420  and  _421
REMARK  177  A    between atoms: _423  and  _425
REMARK  178  A    between atoms: _425  and  _426
REMARK  179  A    between atoms: _425  and  _428
REMARK  180  A    between atoms: _428  and  _429
REMARK  181  A    between atoms: _432  and  _434
REMARK  182  A    between atoms: _434  and  _435
REMARK  183  A    between atoms: _437  and  _439
REMARK  184  A    between atoms: _439  and  _440
REMARK  185  A    between atoms: _442  and  _444
REMARK  186  A    between atoms: _444  and  _445
REMARK  187  A    between atoms: _444  and  _447
REMARK  188  A    between atoms: _447  and  _448
REMARK  189  A    between atoms: _454  and  _456
REMARK  190  A    between atoms: _456  and  _457
REMARK  191  A    between atoms: _456  and  _459
REMARK  192  A    between atoms: _459  and  _460
REMARK  193  A    between atoms: _463  and  _465
REMARK  194  A    between atoms: _465  and  _466
REMARK  195  A    between atoms: _465  and  _468
REMARK  196  A    between atoms: _471  and  _473
REMARK  197  A    between atoms: _473  and  _474
REMARK  198  A    between atoms: _473  and  _476
REMARK  199  A    between atoms: _479  and  _481
REMARK  200  A    between atoms: _481  and  _482
REMARK  201  A    between atoms: _481  and  _484
REMARK  202  A    between atoms: _484  and  _485
REMARK  203  A    between atoms: _489  and  _490
REMARK  204  A    between atoms: _495  and  _497
REMARK  205  A    between atoms: _497  and  _498
REMARK  206  A    between atoms: _497  and  _500
REMARK  207  A    between atoms: _503  and  _505
REMARK  208  A    between atoms: _505  and  _506
REMARK  209  A    between atoms: _505  and  _508
REMARK  210  A    between atoms: _508  and  _509
REMARK  211  A    between atoms: _514  and  _516
REMARK  212  A    between atoms: _516  and  _517
REMARK  213  A    between atoms: _516  and  _519
REMARK  214  A    between atoms: _519  and  _520
REMARK  215  A    between atoms: _523  and  _525
REMARK  216  A    between atoms: _525  and  _526
REMARK  217  A    between atoms: _525  and  _528
REMARK  218  A    between atoms: _528  and  _529
REMARK  219  A    between atoms: _532  and  _534
REMARK  220  A    between atoms: _534  and  _535
REMARK  221  A    between atoms: _537  and  _539
REMARK  222  A    between atoms: _539  and  _540
REMARK  223  A    between atoms: _539  and  _542
REMARK  224  A    between atoms: _542  and  _543
REMARK  225  A    between atoms: _543  and  _544
REMARK  226  A    between atoms: _544  and  _545
REMARK  227  A    between atoms: _554  and  _556
REMARK  228  A    between atoms: _556  and  _557
REMARK  229  A    between atoms: _556  and  _559
REMARK  230  A    between atoms: _559  and  _560
REMARK                            x       y       z     vdW  Elec       q    Type
REMARK                         _______ _______ _______ _____ _____    ______ ____
ROOT
ATOM      1  NE  ARG A   1      22.576  22.353  15.145  0.00  0.00    -0.265 N 
ATOM      2  HE  ARG A   1      22.990  22.977  15.867  0.00  0.00    +0.259 HD
ATOM      3  CZ  ARG A   1      21.444  22.739  14.553  0.00  0.00    +0.342 C 
ATOM      4  NH2 ARG A   1      20.892  23.881  14.898  0.00  0.00    -0.292 N 
ATOM      5 HH21 ARG A   1      21.337  24.475  15.626  0.00  0.00    +0.255 HD
ATOM      6 HH22 ARG A   1      20.010  24.191  14.443  0.00  0.00    +0.255 HD
ATOM      7  NH1 ARG A   1      20.803  21.956  13.650  0.00  0.00    -0.292 N 
ATOM      8 HH11 ARG A   1      21.192  21.024  13.401  0.00  0.00    +0.255 HD
ATOM      9 HH12 ARG A   1      19.922  22.287  13.207  0.00  0.00    +0.255 HD
ENDROOT
BRANCH   1  10
ATOM     10  CD  ARG A   1      23.259  21.115  14.839  0.00  0.00    +0.174 C 
BRANCH  10  11
ATOM     11  CG  ARG A   1      23.954  20.484  16.005  0.00  0.00    +0.045 C 
BRANCH  11  12
ATOM     12  CB  ARG A   1      24.519  19.162  15.632  0.00  0.00    +0.029 C 
BRANCH  12  13
ATOM     13  CA  ARG A   1      25.161  18.379  16.785  0.00  0.00    +0.133 C 
BRANCH  13  14
ATOM     14  N   ARG A   1      26.325  19.075  17.299  0.00  0.00    -0.239 NA
ATOM     15  H   ARG A   1      26.594  19.998  16.903  0.00  0.00    +0.142 HD
ENDBRANCH  13  14
BRANCH  13  16
ATOM     16  C   ARG A   1      25.509  16.981  16.324  0.00  0.00    +0.224 C 
ATOM     17  O   ARG A   1      26.465  16.799  15.676  0.00  0.00    -0.287 OA
ENDBRANCH  13  16
ENDBRANCH  12  13
ENDBRANCH  11  12
ENDBRANCH  10  11
ENDBRANCH   1  10
TORSDOF 6
REMARK  Name = ../refined-set-2016/3pwm/3pwm_pocket.pdb
REMARK  230 active torsions:
REMARK  status: ('A' for Active; 'I' for Inactive)
REMARK    1  A    between atoms: _1  and  _3
REMARK    2  A    between atoms: _3  and  _4
REMARK    3  A    between atoms: _3  and  _6
REMARK    4  A    between atoms: _6  and  _7
REMARK    5  A    between atoms: _7  and  _8
REMARK    6  A    between atoms: _8  and  _9
REMARK    7  A    between atoms: _18  and  _20
REMARK    8  A    between atoms: _20  and  _21
REMARK    9  A    between atoms: _20  and  _23
REMARK   10  A    between atoms: _23  and  _24
REMARK   11  A    between atoms: _27  and  _29
REMARK   12  A    between atoms: _29  and  _30
REMARK   13  A    between atoms: _29  and  _32
REMARK   14  A    between atoms: _32  and  _33
REMARK   15  A    between atoms: _36  and  _38
REMARK   16  A    between atoms: _38  and  _39
REMARK   17  A    between atoms: _38  and  _41
REMARK   18  A    between atoms: _41  and  _42
REMARK   19  A    between atoms: _45  and  _47
REMARK   20  A    between atoms: _47  and  _48
REMARK   21  A    between atoms: _47  and  _50
REMARK   22  A    between atoms: _50  and  _51
REMARK   23  A    between atoms: _54  and  _56
REMARK   24  A    between atoms: _56  and  _57
REMARK   25  A    between atoms: _59  and  _61
REMARK   26  A    between atoms: _61  and  _62
REMARK   27  A    between atoms: _65  and  _67
REMARK   28  A    between atoms: _67  and  _68
REMARK   29  A    between atoms: _67  and  _70
REMARK   30  A    between atoms: _70  and  _71
REMARK   31  A    between atoms: _74  and  _76
REMARK   32  A    between atoms: _76  and  _77
REMARK   33  A    between atoms: _76  and  _79
REMARK   34  A    between atoms: _79  and  _80
REMARK   35  A    between atoms: _83  and  _85
REMARK   36  A    between atoms: _85  and  _86
REMARK   37  A    between atoms: _85  and  _88
REMARK   38  A    between atoms: _88  and  _89
REMARK   39  A    between atoms: _92  and  _94
REMARK   40  A    between atoms: _94  and  _95
REMARK   41  A    between atoms: _94  and  _97
REMARK   42  A    between atoms: _100  and  _102
REMARK   43  A    between atoms: _102  and  _103
REMARK   44  A    between atoms: _102  and  _105
REMARK   45  A    between atoms: _105  and  _106
REMARK   46  A    between atoms: _106  and  _107
REMARK   47  A    between atoms: _107  and  _108
REMARK   48  A    between atoms: _108  and  _109
REMARK   49  A    between atoms: _113  and  _115
REMARK   50  A    between atoms: _115  and  _116
REMARK   51  A    between atoms: _115  and  _118
REMARK   52  A    between atoms: _118  and  _119
REMARK   53  A    between atoms: _119  and  _120
REMARK   54  A    between atoms: _122  and  _124
REMARK   55  A    between atoms: _124  and  _125
REMARK   56  A    between atoms: _124  and  _127
REMARK   57  A    between atoms: _127  and  _128
REMARK   58  A    between atoms: _131  and  _133
REMARK   59  A    between atoms: _133  and  _134
REMARK   60  A    between atoms: _136  and  _138
REMARK   61  A    between atoms: _138  and  _139
REMARK   62  A    between atoms: _141  and  _143
REMARK   63  A    between atoms: _143  and  _144
REMARK   64  A    between atoms: _143  and  _146
REMARK   65  A    between atoms: _146  and  _147
REMARK   66  A    between atoms: _150  and  _152
REMARK   67  A    between atoms: _152  and  _153
REMARK   68  A    between atoms: _155  and  _157
REMARK   69  A    between atoms: _157  and  _158
REMARK   70  A    between atoms: _160  and  _162
REMARK   71  A    between atoms: _162  and  _163
REMARK   72  A    between atoms: _162  and  _165
REMARK   73  A    between atoms: _165  and  _166
REMARK   74  A    between atoms: _172  and  _174
REMARK   75  A    between atoms: _174  and  _175
REMARK   76  A    between atoms: _174  and  _177
REMARK   77  A    between atoms: _177  and  _178
REMARK   78  A    between atoms: _181  and  _183
REMARK   79  A    between atoms: _183  and  _184
REMARK   80  A    between atoms: _183  and  _186
REMARK   81  A    between atoms: _189  and  _191
REMARK   82  A    between atoms: _191  and  _192
REMARK   83  A    between atoms: _191  and  _194
REMARK   84  A    between atoms: _197  and  _199
REMARK   85  A    between atoms: _199  and  _200
REMARK   86  A    between atoms: _199  and  _202
REMARK   87  A    between atoms: _202  and  _203
REMARK   88  A    between atoms: _207  and  _208
REMARK   89  A    between atoms: _213  and  _215
REMARK   90  A    between atoms: _215  and  _216
REMARK   91  A    between atoms: _215  and  _218
REMARK   92  A    between atoms: _221  and  _223
REMARK   93  A    between atoms: _223  and  _224
REMARK   94  A    between atoms: _223  and  _226
REMARK   95  A    between atoms: _226  and  _227
REMARK   96  A    between atoms: _232  and  _234
REMARK   97  A    between atoms: _234  and  _235
REMARK   98  A    between atoms: _234  and  _237
REMARK   99  A    between atoms: _237  and  _238
REMARK  100  A    between atoms: _241  and  _243
REMARK  101  A    between atoms: _243  and  _244
REMARK  102  A    between atoms: _243  and  _246
REMARK  103  A    between atoms: _246  and  _247
REMARK  104  A    between atoms: _250  and  _252
REMARK  105  A    between atoms: _252  and  _253
REMARK  106  A    between atoms: _255  and  _257
REMARK  107  A    between atoms: _257  and  _258
REMARK  108  A    between atoms: _257  and  _260
REMARK  109  A    between atoms: _260  and  _261
REMARK  110  A    between atoms: _261  and  _262
REMARK  111  A    between atoms: _262  and  _263
REMARK  112  A    between atoms: _272  and  _274
REMARK  113  A    between atoms: _274  and  _275
REMARK  114  A    between atoms: _274  and  _277
REMARK  115  A    between atoms: _277  and  _278
REMARK  116  A    between atoms: _283  and  _285
REMARK  117  A    between atoms: _285  and  _286
REMARK  118  A    between atoms: _285  and  _288
REMARK  119  A    between atoms: _288  and  _289
REMARK  120  A    between atoms: _289  and  _290
REMARK  121  A    between atoms: _290  and  _291
REMARK  122  A    between atoms: _300  and  _302
REMARK  123  A    between atoms: _302  and  _303
REMARK  124  A    between atoms: _302  and  _305
REMARK  125  A    between atoms: _305  and  _306
REMARK  126  A    between atoms: _309  and  _311
REMARK  127  A    between atoms: _311  and  _312
REMARK  128  A    between atoms: _311  and  _314
REMARK  129  A    between atoms: _314  and  _315
REMARK  130  A    between atoms: _318  and  _320
REMARK  131  A    between atoms: _320  and  _321
REMARK  132  A    between atoms: _320  and  _323
REMARK  133  A    between atoms: _323  and  _324
REMARK  134  A    between atoms: _327  and  _329
REMARK  135  A    between atoms: _329  and  _330
REMARK  136  A    between atoms: _329  and  _332
REMARK  137  A    between atoms: _332  and  _333
REMARK  138  A    between atoms: _336  and  _338
REMARK  139  A    between atoms: _338  and  _339
REMARK  140  A    between atoms: _341  and  _343
REMARK  141  A    between atoms: _343  and  _344
REMARK  142  A    between atoms: _347  and  _349
REMARK  143  A    between atoms: _349  and  _350
REMARK  144  A    between atoms: _349  and  _352
REMARK  145  A    between atoms: _352  and  _353
REMARK  146  A    between atoms: _356  and  _358
REMARK  147  A    between atoms: _358  and  _359
REMARK  148  A    between atoms: _358  and  _361
REMARK  149  A    between atoms: _361  and  _362
REMARK  150  A    between atoms: _365  and  _367
REMARK  151  A    between atoms: _367  and  _368
REMARK  152  A    between atoms: _367  and  _370
REMARK  153  A    between atoms: _370  and  _371
REMARK  154  A    between atoms: _374  and  _376
REMARK  155  A    between atoms: _376  and  _377
REMARK  156  A    between atoms: _376  and  _379
REMARK  157  A    between atoms: _382  and  _384
REMARK  158  A    between atoms: _384  and  _385
REMARK  159  A    between atoms: _384  and  _387
REMARK  160  A    between atoms: _387  and  _388
REMARK  161  A    between atoms: _388  and  _389
REMARK  162  A    between atoms: _389  and  _390
REMARK  163  A    between atoms: _390  and  _391
REMARK  164  A    between atoms: _395  and  _397
REMARK  165  A    between atoms: _397  and  _398
REMARK  166  A    between atoms: _397  and  _400
REMARK  167  A    between atoms: _400  and  _401
REMARK  168  A    between atoms: _401  and  _402
REMARK  169  A    between atoms: _404  and  _406
REMARK  170  A    between atoms: _406  and  _407
REMARK  171  A    between atoms: _406  and  _409
REMARK  172  A    between atoms: _409  and  _410
REMARK  173  A    between atoms: _413  and  _415
REMARK  174  A    between atoms: _415  and  _416
REMARK  175  A    between atoms: _418  and  _420
REMARK  176  A    between atoms: _420  and  _421
REMARK  177  A    between atoms: _423  and  _425
REMARK  178  A    between atoms: _425  and  _426
REMARK  179  A    between atoms: _425  and  _428
REMARK  180  A    between atoms: _428  and  _429
REMARK  181  A    between atoms: _432  and  _434
REMARK  182  A    between atoms: _434  and  _435
REMARK  183  A    between atoms: _437  and  _439
REMARK  184  A    between atoms: _439  and  _440
REMARK  185  A    between atoms: _442  and  _444
REMARK  186  A    between atoms: _444  and  _445
REMARK  187  A    between atoms: _444  and  _447
REMARK  188  A    between atoms: _447  and  _448
REMARK  189  A    between atoms: _454  and  _456
REMARK  190  A    between atoms: _456  and  _457
REMARK  191  A    between atoms: _456  and  _459
REMARK  192  A    between atoms: _459  and  _460
REMARK  193  A    between atoms: _463  and  _465
REMARK  194  A    between atoms: _465  and  _466
REMARK  195  A    between atoms: _465  and  _468
REMARK  196  A    between atoms: _471  and  _473
REMARK  197  A    between atoms: _473  and  _474
REMARK  198  A    between atoms: _473  and  _476
REMARK  199  A    between atoms: _479  and  _481
REMARK  200  A    between atoms: _481  and  _482
REMARK  201  A    between atoms: _481  and  _484
REMARK  202  A    between atoms: _484  and  _485
REMARK  203  A    between atoms: _489  and  _490
REMARK  204  A    between atoms: _495  and  _497
REMARK  205  A    between atoms: _497  and  _498
REMARK  206  A    between atoms: _497  and  _500
REMARK  207  A    between atoms: _503  and  _505
REMARK  208  A    between atoms: _505  and  _506
REMARK  209  A    between atoms: _505  and  _508
REMARK  210  A    between atoms: _508  and  _509
REMARK  211  A    between atoms: _514  and  _516
REMARK  212  A    between atoms: _516  and  _517
REMARK  213  A    between atoms: _516  and  _519
REMARK  214  A    between atoms: _519  and  _520
REMARK  215  A    between atoms: _523  and  _525
REMARK  216  A    between atoms: _525  and  _526
REMARK  217  A    between atoms: _525  and  _528
REMARK  218  A    between atoms: _528  and  _529
REMARK  219  A    between atoms: _532  and  _534
REMARK  220  A    between atoms: _534  and  _535
REMARK  221  A    between atoms: _537  and  _539
REMARK  222  A    between atoms: _539  and  _540
REMARK  223  A    between atoms: _539  and  _542
REMARK  224  A    between atoms: _542  and  _543
REMARK  225  A    between atoms: _543  and  _544
REMARK  226  A    between atoms: _544  and  _545
REMARK  227  A    between atoms: _554  and  _556
REMARK  228  A    between atoms: _556  and  _557
REMARK  229  A    between atoms: _556  and  _559
REMARK  230  A    between atoms: _559  and  _560
REMARK                            x       y       z     vdW  Elec       q    Type
REMARK                         _______ _______ _______ _____ _____    ______ ____
ROOT
ATOM      1  C   GLY A   5      12.251  14.736  19.797  0.00  0.00    +0.243 C 
ATOM      2  O   GLY A   5      11.188  15.341  19.949  0.00  0.00    -0.273 OA
ATOM      3  N   ALA A   6      12.499  14.021  18.707  0.00  0.00    -0.297 N 
ATOM      4  H   ALA A   6      13.403  13.508  18.671  0.00  0.00    +0.150 HD
ENDROOT
BRANCH   3   5
ATOM      5  CA  ALA A   6      11.615  13.893  17.558  0.00  0.00    +0.149 C 
ATOM      6  CB  ALA A   6      12.344  14.012  16.239  0.00  0.00    +0.031 C 
BRANCH   5   7
ATOM      7  C   ALA A   6      10.934  12.519  17.612  0.00  0.00    +0.241 C 
ATOM      8  N   ASP A   7       9.611  12.525  17.622  0.00  0.00    -0.297 N 
ATOM      9  H   ASP A   7       9.097  13.428  17.679  0.00  0.00    +0.150 HD
ATOM     10  O   ALA A   6      11.597  11.502  17.612  0.00  0.00    -0.273 OA
BRANCH   8  11
ATOM     11  CA  ASP A   7       8.876  11.280  17.554  0.00  0.00    +0.160 C 
BRANCH  11  12
ATOM     12  C   ASP A   7       9.117  10.571  16.213  0.00  0.00    +0.241 C 
ATOM     13  O   ASP A   7       9.209   9.328  16.209  0.00  0.00    -0.273 OA
ATOM     14  N   ASP A   8       9.160  11.370  15.161  0.00  0.00    -0.297 N 
ATOM     15  H   ASP A   8       9.246  12.391  15.337  0.00  0.00    +0.150 HD
BRANCH  14  16
ATOM     16  CA  ASP A   8       9.096  10.932  13.779  0.00  0.00    +0.160 C 
BRANCH  16  17
ATOM     17  C   ASP A   8      10.344  11.428  13.039  0.00  0.00    +0.241 C 
ATOM     18  O   ASP A   8      10.992  12.396  13.420  0.00  0.00    -0.273 OA
ATOM     19  N   THR A   9      10.639  10.771  11.955  0.00  0.00    -0.295 N 
ATOM     20  H   THR A   9      10.060   9.937  11.728  0.00  0.00    +0.150 HD
BRANCH  19  21
ATOM     21  CA  THR A   9      11.715  11.110  11.034  0.00  0.00    +0.176 C 
BRANCH  21  22
ATOM     22  C   THR A   9      11.177  12.061   9.967  0.00  0.00    +0.243 C 
ATOM     23  N   VAL A  10      11.831  13.215   9.817  0.00  0.00    -0.298 N 
ATOM     24  H   VAL A  10      12.728  13.336  10.329  0.00  0.00    +0.150 HD
ATOM     25  O   THR A   9      10.177  11.722   9.312  0.00  0.00    -0.273 OA
BRANCH  23  26
ATOM     26  CA  VAL A  10      11.371  14.313   8.985  0.00  0.00    +0.137 C 
BRANCH  26  27
ATOM     27  CB  VAL A  10      10.939  15.551   9.816  0.00  0.00    +0.026 C 
ATOM     28  CG2 VAL A  10      10.078  15.200  11.020  0.00  0.00    +0.002 C 
ATOM     29  CG1 VAL A  10      10.220  16.502   8.860  0.00  0.00    +0.002 C 
ENDBRANCH  26  27
BRANCH  26  30
ATOM     30  C   VAL A  10      12.502  14.702   8.037  0.00  0.00    +0.227 C 
ATOM     31  O   VAL A  10      13.588  15.103   8.473  0.00  0.00    -0.286 OA
ENDBRANCH  26  30
ENDBRANCH  23  26
ENDBRANCH  21  22
BRANCH  21  32
ATOM     32  CB  THR A   9      12.294   9.797  10.447  0.00  0.00    +0.137 C 
ATOM     33  CG2 THR A   9      13.269  10.062   9.316  0.00  0.00    +0.034 C 
BRANCH  32  34
ATOM     34  OG1 THR A   9      12.954   9.090  11.499  0.00  0.00    -0.382 OA
ATOM     35  HG1 THR A   9      12.303   8.885  12.216  0.00  0.00    +0.210 HD
ENDBRANCH  32  34
ENDBRANCH  21  32
ENDBRANCH  19  21
ENDBRANCH  16  17
BRANCH  16  36
ATOM     36  CB  ASP A   8       7.876  11.490  13.044  0.00  0.00    +0.143 C 
BRANCH  36  37
ATOM     37  CG  ASP A   8       6.561  11.562  13.740  0.00  0.00    +0.367 C 
ATOM     38  OD2 ASP A   8       6.210  10.481  14.293  0.00  0.00    -0.246 OA
ATOM     39  OD1 ASP A   8       5.833  12.591  13.750  0.00  0.00    -0.246 OA
ENDBRANCH  36  37
ENDBRANCH  16  36
ENDBRANCH  14  16
ENDBRANCH  11  12
BRANCH  11  40
ATOM     40  CB  ASP A   7       7.375  11.499  17.771  0.00  0.00    +0.143 C 
BRANCH  40  41
ATOM     41  CG  ASP A   7       6.941  12.058  19.123  0.00  0.00    +0.367 C 
ATOM     42  OD2 ASP A   7       7.680  12.004  20.118  0.00  0.00    -0.246 OA
ATOM     43  OD1 ASP A   7       5.770  12.554  19.166  0.00  0.00    -0.246 OA
ENDBRANCH  40  41
ENDBRANCH  11  40
ENDBRANCH   8  11
ENDBRANCH   5   7
ENDBRANCH   3   5
BRANCH   1  44
ATOM     44  CA  GLY A   5      13.317  14.799  20.875  0.00  0.00    +0.176 C 
BRANCH  44  47
ATOM     45  C   THR A   4      14.520  12.703  20.929  0.00  0.00    +0.243 C 
ATOM     46  O   THR A   4      13.614  12.128  21.492  0.00  0.00    -0.273 OA
ATOM     47  N   GLY A   5      14.482  13.979  20.603  0.00  0.00    -0.295 N 
ATOM     48  H   GLY A   5      15.308  14.409  20.139  0.00  0.00    +0.150 HD
BRANCH  45  49
ATOM     49  CA  THR A   4      15.790  11.937  20.586  0.00  0.00    +0.176 C 
BRANCH  49  51
ATOM     50  C   ASP A   3      16.165  12.759  18.346  0.00  0.00    +0.241 C 
ATOM     51  N   THR A   4      16.611  12.646  19.600  0.00  0.00    -0.295 N 
ATOM     52  H   THR A   4      17.527  13.055  19.873  0.00  0.00    +0.150 HD
ATOM     53  O   ASP A   3      15.086  12.371  17.928  0.00  0.00    -0.273 OA
BRANCH  50  54
ATOM     54  CA  ASP A   3      17.130  13.489  17.416  0.00  0.00    +0.160 C 
BRANCH  54  57
ATOM     55  C   LEU A   2      19.248  12.700  16.571  0.00  0.00    +0.241 C 
ATOM     56  O   LEU A   2      19.890  13.313  17.416  0.00  0.00    -0.273 OA
ATOM     57  N   ASP A   3      17.928  12.622  16.578  0.00  0.00    -0.297 N 
ATOM     58  H   ASP A   3      17.455  11.924  15.969  0.00  0.00    +0.150 HD
BRANCH  55  59
ATOM     59  CA  LEU A   2      19.999  12.038  15.420  0.00  0.00    +0.149 C 
BRANCH  59  61
ATOM     60  C   LEU A   1      19.839  13.746  13.695  0.00  0.00    +0.238 C 
ATOM     61  N   LEU A   2      20.568  13.096  14.570  0.00  0.00    -0.297 N 
ATOM     62  H   LEU A   2      21.576  13.335  14.666  0.00  0.00    +0.150 HD
ATOM     63  O   LEU A   1      18.676  13.413  13.461  0.00  0.00    -0.274 OA
BRANCH  60  64
ATOM     64  CA  LEU A   1      20.453  14.915  12.955  0.00  0.00    +0.145 C 
BRANCH  64  65
ATOM     65  N   LEU A   1      20.284  14.778  11.529  0.00  0.00    -0.238 NA
ATOM     66  H   LEU A   1      19.414  15.161  11.106  0.00  0.00    +0.142 HD
ENDBRANCH  64  65
BRANCH  64  67
ATOM     67  CB  LEU A   1      19.743  16.223  13.315  0.00  0.00    +0.026 C 
BRANCH  67  68
ATOM     68  CG  LEU A   1      19.871  16.828  14.669  0.00  0.00    +0.002 C 
ATOM     69  CD2 LEU A   1      21.288  17.252  14.931  0.00  0.00    +0.000 C 
ATOM     70  CD1 LEU A   1      18.945  18.031  14.780  0.00  0.00    +0.000 C 
ENDBRANCH  67  68
ENDBRANCH  64  67
ENDBRANCH  60  64
ENDBRANCH  59  61
BRANCH  59  71
ATOM     71  CB  LEU A   2      21.103  11.116  15.953  0.00  0.00    +0.029 C 
BRANCH  71  72
ATOM     72  CG  LEU A   2      21.960  10.361  14.930  0.00  0.00    +0.002 C 
ATOM     73  CD2 LEU A   2      23.010   9.501  15.616  0.00  0.00    +0.000 C 
ATOM     74  CD1 LEU A   2      21.107   9.483  14.003  0.00  0.00    +0.000 C 
ENDBRANCH  71  72
ENDBRANCH  59  71
ENDBRANCH  55  59
ENDBRANCH  54  57
BRANCH  54  75
ATOM     75  CB  ASP A   3      16.361  14.414  16.494  0.00  0.00    +0.143 C 
BRANCH  75  76
ATOM     76  CG  ASP A   3      15.666  15.547  17.219  0.00  0.00    +0.367 C 
ATOM     77  OD2 ASP A   3      15.684  15.514  18.477  0.00  0.00    -0.246 OA
ATOM     78  OD1 ASP A   3      15.123  16.427  16.516  0.00  0.00    -0.246 OA
ENDBRANCH  75  76
ENDBRANCH  54  75
ENDBRANCH  50  54
ENDBRANCH  49  51
BRANCH  49  79
ATOM     79  CB  THR A   4      16.572  11.671  21.868  0.00  0.00    +0.137 C 
ATOM     80  CG2 THR A   4      17.783  10.811  21.595  0.00  0.00    +0.034 C 
BRANCH  79  81
ATOM     81  OG1 THR A   4      17.019  12.922  22.424  0.00  0.00    -0.382 OA
ATOM     82  HG1 THR A   4      16.234  13.491  22.627  0.00  0.00    +0.210 HD
ENDBRANCH  79  81
ENDBRANCH  49  79
ENDBRANCH  45  49
ENDBRANCH  44  47
ENDBRANCH   1  44
TORSDOF 35
REMARK  Name = ../refined-set-2016/3pwm/3pwm_pocket.pdb
REMARK  230 active torsions:
REMARK  status: ('A' for Active; 'I' for Inactive)
REMARK    1  A    between atoms: _1  and  _3
REMARK    2  A    between atoms: _3  and  _4
REMARK    3  A    between atoms: _3  and  _6
REMARK    4  A    between atoms: _6  and  _7
REMARK    5  A    between atoms: _7  and  _8
REMARK    6  A    between atoms: _8  and  _9
REMARK    7  A    between atoms: _18  and  _20
REMARK    8  A    between atoms: _20  and  _21
REMARK    9  A    between atoms: _20  and  _23
REMARK   10  A    between atoms: _23  and  _24
REMARK   11  A    between atoms: _27  and  _29
REMARK   12  A    between atoms: _29  and  _30
REMARK   13  A    between atoms: _29  and  _32
REMARK   14  A    between atoms: _32  and  _33
REMARK   15  A    between atoms: _36  and  _38
REMARK   16  A    between atoms: _38  and  _39
REMARK   17  A    between atoms: _38  and  _41
REMARK   18  A    between atoms: _41  and  _42
REMARK   19  A    between atoms: _45  and  _47
REMARK   20  A    between atoms: _47  and  _48
REMARK   21  A    between atoms: _47  and  _50
REMARK   22  A    between atoms: _50  and  _51
REMARK   23  A    between atoms: _54  and  _56
REMARK   24  A    between atoms: _56  and  _57
REMARK   25  A    between atoms: _59  and  _61
REMARK   26  A    between atoms: _61  and  _62
REMARK   27  A    between atoms: _65  and  _67
REMARK   28  A    between atoms: _67  and  _68
REMARK   29  A    between atoms: _67  and  _70
REMARK   30  A    between atoms: _70  and  _71
REMARK   31  A    between atoms: _74  and  _76
REMARK   32  A    between atoms: _76  and  _77
REMARK   33  A    between atoms: _76  and  _79
REMARK   34  A    between atoms: _79  and  _80
REMARK   35  A    between atoms: _83  and  _85
REMARK   36  A    between atoms: _85  and  _86
REMARK   37  A    between atoms: _85  and  _88
REMARK   38  A    between atoms: _88  and  _89
REMARK   39  A    between atoms: _92  and  _94
REMARK   40  A    between atoms: _94  and  _95
REMARK   41  A    between atoms: _94  and  _97
REMARK   42  A    between atoms: _100  and  _102
REMARK   43  A    between atoms: _102  and  _103
REMARK   44  A    between atoms: _102  and  _105
REMARK   45  A    between atoms: _105  and  _106
REMARK   46  A    between atoms: _106  and  _107
REMARK   47  A    between atoms: _107  and  _108
REMARK   48  A    between atoms: _108  and  _109
REMARK   49  A    between atoms: _113  and  _115
REMARK   50  A    between atoms: _115  and  _116
REMARK   51  A    between atoms: _115  and  _118
REMARK   52  A    between atoms: _118  and  _119
REMARK   53  A    between atoms: _119  and  _120
REMARK   54  A    between atoms: _122  and  _124
REMARK   55  A    between atoms: _124  and  _125
REMARK   56  A    between atoms: _124  and  _127
REMARK   57  A    between atoms: _127  and  _128
REMARK   58  A    between atoms: _131  and  _133
REMARK   59  A    between atoms: _133  and  _134
REMARK   60  A    between atoms: _136  and  _138
REMARK   61  A    between atoms: _138  and  _139
REMARK   62  A    between atoms: _141  and  _143
REMARK   63  A    between atoms: _143  and  _144
REMARK   64  A    between atoms: _143  and  _146
REMARK   65  A    between atoms: _146  and  _147
REMARK   66  A    between atoms: _150  and  _152
REMARK   67  A    between atoms: _152  and  _153
REMARK   68  A    between atoms: _155  and  _157
REMARK   69  A    between atoms: _157  and  _158
REMARK   70  A    between atoms: _160  and  _162
REMARK   71  A    between atoms: _162  and  _163
REMARK   72  A    between atoms: _162  and  _165
REMARK   73  A    between atoms: _165  and  _166
REMARK   74  A    between atoms: _172  and  _174
REMARK   75  A    between atoms: _174  and  _175
REMARK   76  A    between atoms: _174  and  _177
REMARK   77  A    between atoms: _177  and  _178
REMARK   78  A    between atoms: _181  and  _183
REMARK   79  A    between atoms: _183  and  _184
REMARK   80  A    between atoms: _183  and  _186
REMARK   81  A    between atoms: _189  and  _191
REMARK   82  A    between atoms: _191  and  _192
REMARK   83  A    between atoms: _191  and  _194
REMARK   84  A    between atoms: _197  and  _199
REMARK   85  A    between atoms: _199  and  _200
REMARK   86  A    between atoms: _199  and  _202
REMARK   87  A    between atoms: _202  and  _203
REMARK   88  A    between atoms: _207  and  _208
REMARK   89  A    between atoms: _213  and  _215
REMARK   90  A    between atoms: _215  and  _216
REMARK   91  A    between atoms: _215  and  _218
REMARK   92  A    between atoms: _221  and  _223
REMARK   93  A    between atoms: _223  and  _224
REMARK   94  A    between atoms: _223  and  _226
REMARK   95  A    between atoms: _226  and  _227
REMARK   96  A    between atoms: _232  and  _234
REMARK   97  A    between atoms: _234  and  _235
REMARK   98  A    between atoms: _234  and  _237
REMARK   99  A    between atoms: _237  and  _238
REMARK  100  A    between atoms: _241  and  _243
REMARK  101  A    between atoms: _243  and  _244
REMARK  102  A    between atoms: _243  and  _246
REMARK  103  A    between atoms: _246  and  _247
REMARK  104  A    between atoms: _250  and  _252
REMARK  105  A    between atoms: _252  and  _253
REMARK  106  A    between atoms: _255  and  _257
REMARK  107  A    between atoms: _257  and  _258
REMARK  108  A    between atoms: _257  and  _260
REMARK  109  A    between atoms: _260  and  _261
REMARK  110  A    between atoms: _261  and  _262
REMARK  111  A    between atoms: _262  and  _263
REMARK  112  A    between atoms: _272  and  _274
REMARK  113  A    between atoms: _274  and  _275
REMARK  114  A    between atoms: _274  and  _277
REMARK  115  A    between atoms: _277  and  _278
REMARK  116  A    between atoms: _283  and  _285
REMARK  117  A    between atoms: _285  and  _286
REMARK  118  A    between atoms: _285  and  _288
REMARK  119  A    between atoms: _288  and  _289
REMARK  120  A    between atoms: _289  and  _290
REMARK  121  A    between atoms: _290  and  _291
REMARK  122  A    between atoms: _300  and  _302
REMARK  123  A    between atoms: _302  and  _303
REMARK  124  A    between atoms: _302  and  _305
REMARK  125  A    between atoms: _305  and  _306
REMARK  126  A    between atoms: _309  and  _311
REMARK  127  A    between atoms: _311  and  _312
REMARK  128  A    between atoms: _311  and  _314
REMARK  129  A    between atoms: _314  and  _315
REMARK  130  A    between atoms: _318  and  _320
REMARK  131  A    between atoms: _320  and  _321
REMARK  132  A    between atoms: _320  and  _323
REMARK  133  A    between atoms: _323  and  _324
REMARK  134  A    between atoms: _327  and  _329
REMARK  135  A    between atoms: _329  and  _330
REMARK  136  A    between atoms: _329  and  _332
REMARK  137  A    between atoms: _332  and  _333
REMARK  138  A    between atoms: _336  and  _338
REMARK  139  A    between atoms: _338  and  _339
REMARK  140  A    between atoms: _341  and  _343
REMARK  141  A    between atoms: _343  and  _344
REMARK  142  A    between atoms: _347  and  _349
REMARK  143  A    between atoms: _349  and  _350
REMARK  144  A    between atoms: _349  and  _352
REMARK  145  A    between atoms: _352  and  _353
REMARK  146  A    between atoms: _356  and  _358
REMARK  147  A    between atoms: _358  and  _359
REMARK  148  A    between atoms: _358  and  _361
REMARK  149  A    between atoms: _361  and  _362
REMARK  150  A    between atoms: _365  and  _367
REMARK  151  A    between atoms: _367  and  _368
REMARK  152  A    between atoms: _367  and  _370
REMARK  153  A    between atoms: _370  and  _371
REMARK  154  A    between atoms: _374  and  _376
REMARK  155  A    between atoms: _376  and  _377
REMARK  156  A    between atoms: _376  and  _379
REMARK  157  A    between atoms: _382  and  _384
REMARK  158  A    between atoms: _384  and  _385
REMARK  159  A    between atoms: _384  and  _387
REMARK  160  A    between atoms: _387  and  _388
REMARK  161  A    between atoms: _388  and  _389
REMARK  162  A    between atoms: _389  and  _390
REMARK  163  A    between atoms: _390  and  _391
REMARK  164  A    between atoms: _395  and  _397
REMARK  165  A    between atoms: _397  and  _398
REMARK  166  A    between atoms: _397  and  _400
REMARK  167  A    between atoms: _400  and  _401
REMARK  168  A    between atoms: _401  and  _402
REMARK  169  A    between atoms: _404  and  _406
REMARK  170  A    between atoms: _406  and  _407
REMARK  171  A    between atoms: _406  and  _409
REMARK  172  A    between atoms: _409  and  _410
REMARK  173  A    between atoms: _413  and  _415
REMARK  174  A    between atoms: _415  and  _416
REMARK  175  A    between atoms: _418  and  _420
REMARK  176  A    between atoms: _420  and  _421
REMARK  177  A    between atoms: _423  and  _425
REMARK  178  A    between atoms: _425  and  _426
REMARK  179  A    between atoms: _425  and  _428
REMARK  180  A    between atoms: _428  and  _429
REMARK  181  A    between atoms: _432  and  _434
REMARK  182  A    between atoms: _434  and  _435
REMARK  183  A    between atoms: _437  and  _439
REMARK  184  A    between atoms: _439  and  _440
REMARK  185  A    between atoms: _442  and  _444
REMARK  186  A    between atoms: _444  and  _445
REMARK  187  A    between atoms: _444  and  _447
REMARK  188  A    between atoms: _447  and  _448
REMARK  189  A    between atoms: _454  and  _456
REMARK  190  A    between atoms: _456  and  _457
REMARK  191  A    between atoms: _456  and  _459
REMARK  192  A    between atoms: _459  and  _460
REMARK  193  A    between atoms: _463  and  _465
REMARK  194  A    between atoms: _465  and  _466
REMARK  195  A    between atoms: _465  and  _468
REMARK  196  A    between atoms: _471  and  _473
REMARK  197  A    between atoms: _473  and  _474
REMARK  198  A    between atoms: _473  and  _476
REMARK  199  A    between atoms: _479  and  _481
REMARK  200  A    between atoms: _481  and  _482
REMARK  201  A    between atoms: _481  and  _484
REMARK  202  A    between atoms: _484  and  _485
REMARK  203  A    between atoms: _489  and  _490
REMARK  204  A    between atoms: _495  and  _497
REMARK  205  A    between atoms: _497  and  _498
REMARK  206  A    between atoms: _497  and  _500
REMARK  207  A    between atoms: _503  and  _505
REMARK  208  A    between atoms: _505  and  _506
REMARK  209  A    between atoms: _505  and  _508
REMARK  210  A    between atoms: _508  and  _509
REMARK  211  A    between atoms: _514  and  _516
REMARK  212  A    between atoms: _516  and  _517
REMARK  213  A    between atoms: _516  and  _519
REMARK  214  A    between atoms: _519  and  _520
REMARK  215  A    between atoms: _523  and  _525
REMARK  216  A    between atoms: _525  and  _526
REMARK  217  A    between atoms: _525  and  _528
REMARK  218  A    between atoms: _528  and  _529
REMARK  219  A    between atoms: _532  and  _534
REMARK  220  A    between atoms: _534  and  _535
REMARK  221  A    between atoms: _537  and  _539
REMARK  222  A    between atoms: _539  and  _540
REMARK  223  A    between atoms: _539  and  _542
REMARK  224  A    between atoms: _542  and  _543
REMARK  225  A    between atoms: _543  and  _544
REMARK  226  A    between atoms: _544  and  _545
REMARK  227  A    between atoms: _554  and  _556
REMARK  228  A    between atoms: _556  and  _557
REMARK  229  A    between atoms: _556  and  _559
REMARK  230  A    between atoms: _559  and  _560
REMARK                            x       y       z     vdW  Elec       q    Type
REMARK                         _______ _______ _______ _____ _____    ______ ____
ROOT
ATOM      1  C   GLY A   5       7.473  23.357  17.489  0.00  0.00    +0.243 C 
ATOM      2  N   ILE A   6       8.683  23.783  17.835  0.00  0.00    -0.297 N 
ATOM      3  H   ILE A   6       9.480  23.121  17.921  0.00  0.00    +0.150 HD
ATOM      4  O   GLY A   5       6.445  24.003  17.481  0.00  0.00    -0.273 OA
ENDROOT
BRANCH   1   5
ATOM      5  CA  GLY A   5       7.329  21.919  17.050  0.00  0.00    +0.176 C 
BRANCH   5   8
ATOM      6  C   GLY A   4       5.551  20.667  16.077  0.00  0.00    +0.243 C 
ATOM      7  O   GLY A   4       5.882  19.713  16.758  0.00  0.00    -0.273 OA
ATOM      8  N   GLY A   5       6.191  21.811  16.191  0.00  0.00    -0.295 N 
ATOM      9  H   GLY A   5       5.868  22.641  15.654  0.00  0.00    +0.150 HD
BRANCH   6  10
ATOM     10  CA  GLY A   4       4.426  20.657  15.102  0.00  0.00    +0.176 C 
BRANCH  10  12
ATOM     11  C   ILE A   3       4.121  19.389  13.075  0.00  0.00    +0.241 C 
ATOM     12  N   GLY A   4       4.211  19.415  14.407  0.00  0.00    -0.295 N 
ATOM     13  H   GLY A   4       4.125  18.530  14.947  0.00  0.00    +0.150 HD
ATOM     14  O   ILE A   3       4.325  20.374  12.373  0.00  0.00    -0.273 OA
BRANCH  11  15
ATOM     15  CA  ILE A   3       3.705  18.030  12.523  0.00  0.00    +0.149 C 
BRANCH  15  18
ATOM     16  C   MET A   2       1.696  17.705  11.242  0.00  0.00    +0.241 C 
ATOM     17  O   MET A   2       1.280  16.864  12.035  0.00  0.00    -0.273 OA
ATOM     18  N   ILE A   3       2.867  18.261  11.344  0.00  0.00    -0.297 N 
ATOM     19  H   ILE A   3       3.212  18.876  10.580  0.00  0.00    +0.150 HD
BRANCH  16  20
ATOM     20  CA  MET A   2       0.817  18.162  10.079  0.00  0.00    +0.149 C 
BRANCH  20  22
ATOM     21  C   LYS A   1       0.474  16.563   8.271  0.00  0.00    +0.238 C 
ATOM     22  N   MET A   2       0.205  16.976   9.498  0.00  0.00    -0.297 N 
ATOM     23  H   MET A   2      -0.471  16.432  10.071  0.00  0.00    +0.150 HD
ATOM     24  O   LYS A   1       1.129  17.224   7.453  0.00  0.00    -0.274 OA
BRANCH  21  25
ATOM     25  CA  LYS A   1      -0.030  15.185   7.869  0.00  0.00    +0.145 C 
BRANCH  25  26
ATOM     26  N   LYS A   1      -0.059  15.085   6.435  0.00  0.00    -0.238 NA
ATOM     27  H   LYS A   1       0.652  15.612   5.888  0.00  0.00    +0.142 HD
ENDBRANCH  25  26
BRANCH  25  28
ATOM     28  CB  LYS A   1       0.920  14.087   8.356  0.00  0.00    +0.026 C 
BRANCH  28  29
ATOM     29  CG  LYS A   1       0.981  13.813   9.812  0.00  0.00    -0.000 C 
BRANCH  29  30
ATOM     30  CD  LYS A   1       1.869  12.656  10.188  0.00  0.00    -0.024 C 
BRANCH  30  31
ATOM     31  CE  LYS A   1       1.807  12.331  11.675  0.00  0.00    -0.086 C 
BRANCH  31  32
ATOM     32  NZ  LYS A   1       3.074  11.698  12.174  0.00  0.00    +0.380 N 
ATOM     33  HZ1 LYS A   1       2.982  11.496  13.190  0.00  0.00    -0.089 HD
ATOM     34  HZ2 LYS A   1       3.870  12.349  12.019  0.00  0.00    -0.089 HD
ATOM     35  HZ3 LYS A   1       3.244  10.812  11.657  0.00  0.00    -0.089 HD
ENDBRANCH  31  32
ENDBRANCH  30  31
ENDBRANCH  29  30
ENDBRANCH  28  29
ENDBRANCH  25  28
ENDBRANCH  21  25
ENDBRANCH  20  22
BRANCH  20  36
ATOM     36  CB  MET A   2      -0.189  19.189  10.616  0.00  0.00    +0.041 C 
BRANCH  36  37
ATOM     37  CG  MET A   2      -1.144  19.705   9.557  0.00  0.00    +0.060 C 
BRANCH  37  38
ATOM     38  SD  MET A   2      -0.328  20.944   8.538  0.00  0.00    -0.139 S 
ATOM     39  CE  MET A   2      -1.774  21.800   7.882  0.00  0.00    +0.069 C 
ENDBRANCH  37  38
ENDBRANCH  36  37
ENDBRANCH  20  36
ENDBRANCH  16  20
ENDBRANCH  15  18
BRANCH  15  40
ATOM     40  CB  ILE A   3       4.919  17.161  12.213  0.00  0.00    +0.027 C 
ATOM     41  CG2 ILE A   3       4.510  15.787  11.684  0.00  0.00    +0.002 C 
BRANCH  40  42
ATOM     42  CG1 ILE A   3       5.869  17.861  11.261  0.00  0.00    +0.002 C 
ATOM     43  CD1 ILE A   3       7.178  17.083  11.100  0.00  0.00    +0.000 C 
ENDBRANCH  40  42
ENDBRANCH  15  40
ENDBRANCH  11  15
ENDBRANCH  10  12
ENDBRANCH   6  10
ENDBRANCH   5   8
ENDBRANCH   1   5
BRANCH   2  44
ATOM     44  CA  ILE A   6       8.858  25.208  18.091  0.00  0.00    +0.149 C 
BRANCH  44  45
ATOM     45  C   ILE A   6       8.676  25.981  16.809  0.00  0.00    +0.241 C 
ATOM     46  N   GLY A   7       7.988  27.120  16.930  0.00  0.00    -0.295 N 
ATOM     47  H   GLY A   7       7.712  27.457  17.875  0.00  0.00    +0.150 HD
ATOM     48  O   ILE A   6       9.133  25.604  15.745  0.00  0.00    -0.273 OA
BRANCH  46  49
ATOM     49  CA  GLY A   7       7.629  27.876  15.782  0.00  0.00    +0.176 C 
BRANCH  49  50
ATOM     50  C   GLY A   7       6.266  27.379  15.218  0.00  0.00    +0.243 C 
ATOM     51  N   GLY A   8       5.609  26.330  15.565  0.00  0.00    -0.295 N 
ATOM     52  H   GLY A   8       6.000  25.740  16.327  0.00  0.00    +0.150 HD
ATOM     53  O   GLY A   7       5.865  28.134  14.391  0.00  0.00    -0.273 OA
BRANCH  51  54
ATOM     54  CA  GLY A   8       4.360  25.918  14.962  0.00  0.00    +0.176 C 
BRANCH  54  55
ATOM     55  C   GLY A   8       4.404  24.651  14.115  0.00  0.00    +0.243 C 
ATOM     56  O   GLY A   8       5.254  23.793  14.362  0.00  0.00    -0.273 OA
ATOM     57  N   PHE A   9       3.491  24.535  13.133  0.00  0.00    -0.297 N 
ATOM     58  H   PHE A   9       2.884  25.348  12.907  0.00  0.00    +0.150 HD
BRANCH  57  59
ATOM     59  CA  PHE A   9       3.332  23.300  12.380  0.00  0.00    +0.153 C 
BRANCH  59  60
ATOM     60  C   PHE A   9       3.753  23.441  10.934  0.00  0.00    +0.241 C 
ATOM     61  O   PHE A   9       3.650  24.535  10.400  0.00  0.00    -0.273 OA
ATOM     62  N   ILE A  10       4.177  22.365  10.326  0.00  0.00    -0.298 N 
ATOM     63  H   ILE A  10       4.359  21.517  10.901  0.00  0.00    +0.150 HD
BRANCH  62  64
ATOM     64  CA  ILE A  10       4.411  22.283   8.885  0.00  0.00    +0.137 C 
BRANCH  64  65
ATOM     65  CB  ILE A  10       5.887  22.110   8.510  0.00  0.00    +0.026 C 
ATOM     66  CG2 ILE A  10       6.689  23.342   8.936  0.00  0.00    +0.002 C 
BRANCH  65  67
ATOM     67  CG1 ILE A  10       6.582  20.850   9.019  0.00  0.00    +0.002 C 
ATOM     68  CD1 ILE A  10       7.934  20.596   8.355  0.00  0.00    +0.000 C 
ENDBRANCH  65  67
ENDBRANCH  64  65
BRANCH  64  69
ATOM     69  C   ILE A  10       3.605  21.105   8.329  0.00  0.00    +0.227 C 
ATOM     70  O   ILE A  10       3.332  20.120   9.021  0.00  0.00    -0.286 OA
ENDBRANCH  64  69
ENDBRANCH  62  64
ENDBRANCH  59  60
BRANCH  59  71
ATOM     71  CB  PHE A   9       1.851  22.881  12.406  0.00  0.00    +0.055 C 
BRANCH  71  72
ATOM     72  CG  PHE A   9       1.394  22.299  13.716  0.00  0.00    -0.020 A 
ATOM     73  CD2 PHE A   9       1.170  23.143  14.789  0.00  0.00    -0.004 A 
ATOM     74  CE2 PHE A   9       0.751  22.643  16.004  0.00  0.00    -0.000 A 
ATOM     75  CZ  PHE A   9       0.585  21.269  16.100  0.00  0.00    -0.000 A 
ATOM     76  CE1 PHE A   9       0.797  20.423  15.050  0.00  0.00    -0.000 A 
ATOM     77  CD1 PHE A   9       1.186  20.934  13.831  0.00  0.00    -0.004 A 
ENDBRANCH  71  72
ENDBRANCH  59  71
ENDBRANCH  57  59
ENDBRANCH  54  55
ENDBRANCH  51  54
ENDBRANCH  49  50
ENDBRANCH  46  49
ENDBRANCH  44  45
BRANCH  44  78
ATOM     78  CB  ILE A   6      10.237  25.449  18.710  0.00  0.00    +0.027 C 
ATOM     79  CG2 ILE A   6      10.680  26.922  18.632  0.00  0.00    +0.002 C 
BRANCH  78  80
ATOM     80  CG1 ILE A   6      10.214  24.976  20.163  0.00  0.00    +0.002 C 
ATOM     81  CD1 ILE A   6      11.538  24.950  20.851  0.00  0.00    +0.000 C 
ENDBRANCH  78  80
ENDBRANCH  44  78
ENDBRANCH   2  44
TORSDOF 36
REMARK  Name = ../refined-set-2016/3pwm/3pwm_pocket.pdb
REMARK  230 active torsions:
REMARK  status: ('A' for Active; 'I' for Inactive)
REMARK    1  A    between atoms: _1  and  _3
REMARK    2  A    between atoms: _3  and  _4
REMARK    3  A    between atoms: _3  and  _6
REMARK    4  A    between atoms: _6  and  _7
REMARK    5  A    between atoms: _7  and  _8
REMARK    6  A    between atoms: _8  and  _9
REMARK    7  A    between atoms: _18  and  _20
REMARK    8  A    between atoms: _20  and  _21
REMARK    9  A    between atoms: _20  and  _23
REMARK   10  A    between atoms: _23  and  _24
REMARK   11  A    between atoms: _27  and  _29
REMARK   12  A    between atoms: _29  and  _30
REMARK   13  A    between atoms: _29  and  _32
REMARK   14  A    between atoms: _32  and  _33
REMARK   15  A    between atoms: _36  and  _38
REMARK   16  A    between atoms: _38  and  _39
REMARK   17  A    between atoms: _38  and  _41
REMARK   18  A    between atoms: _41  and  _42
REMARK   19  A    between atoms: _45  and  _47
REMARK   20  A    between atoms: _47  and  _48
REMARK   21  A    between atoms: _47  and  _50
REMARK   22  A    between atoms: _50  and  _51
REMARK   23  A    between atoms: _54  and  _56
REMARK   24  A    between atoms: _56  and  _57
REMARK   25  A    between atoms: _59  and  _61
REMARK   26  A    between atoms: _61  and  _62
REMARK   27  A    between atoms: _65  and  _67
REMARK   28  A    between atoms: _67  and  _68
REMARK   29  A    between atoms: _67  and  _70
REMARK   30  A    between atoms: _70  and  _71
REMARK   31  A    between atoms: _74  and  _76
REMARK   32  A    between atoms: _76  and  _77
REMARK   33  A    between atoms: _76  and  _79
REMARK   34  A    between atoms: _79  and  _80
REMARK   35  A    between atoms: _83  and  _85
REMARK   36  A    between atoms: _85  and  _86
REMARK   37  A    between atoms: _85  and  _88
REMARK   38  A    between atoms: _88  and  _89
REMARK   39  A    between atoms: _92  and  _94
REMARK   40  A    between atoms: _94  and  _95
REMARK   41  A    between atoms: _94  and  _97
REMARK   42  A    between atoms: _100  and  _102
REMARK   43  A    between atoms: _102  and  _103
REMARK   44  A    between atoms: _102  and  _105
REMARK   45  A    between atoms: _105  and  _106
REMARK   46  A    between atoms: _106  and  _107
REMARK   47  A    between atoms: _107  and  _108
REMARK   48  A    between atoms: _108  and  _109
REMARK   49  A    between atoms: _113  and  _115
REMARK   50  A    between atoms: _115  and  _116
REMARK   51  A    between atoms: _115  and  _118
REMARK   52  A    between atoms: _118  and  _119
REMARK   53  A    between atoms: _119  and  _120
REMARK   54  A    between atoms: _122  and  _124
REMARK   55  A    between atoms: _124  and  _125
REMARK   56  A    between atoms: _124  and  _127
REMARK   57  A    between atoms: _127  and  _128
REMARK   58  A    between atoms: _131  and  _133
REMARK   59  A    between atoms: _133  and  _134
REMARK   60  A    between atoms: _136  and  _138
REMARK   61  A    between atoms: _138  and  _139
REMARK   62  A    between atoms: _141  and  _143
REMARK   63  A    between atoms: _143  and  _144
REMARK   64  A    between atoms: _143  and  _146
REMARK   65  A    between atoms: _146  and  _147
REMARK   66  A    between atoms: _150  and  _152
REMARK   67  A    between atoms: _152  and  _153
REMARK   68  A    between atoms: _155  and  _157
REMARK   69  A    between atoms: _157  and  _158
REMARK   70  A    between atoms: _160  and  _162
REMARK   71  A    between atoms: _162  and  _163
REMARK   72  A    between atoms: _162  and  _165
REMARK   73  A    between atoms: _165  and  _166
REMARK   74  A    between atoms: _172  and  _174
REMARK   75  A    between atoms: _174  and  _175
REMARK   76  A    between atoms: _174  and  _177
REMARK   77  A    between atoms: _177  and  _178
REMARK   78  A    between atoms: _181  and  _183
REMARK   79  A    between atoms: _183  and  _184
REMARK   80  A    between atoms: _183  and  _186
REMARK   81  A    between atoms: _189  and  _191
REMARK   82  A    between atoms: _191  and  _192
REMARK   83  A    between atoms: _191  and  _194
REMARK   84  A    between atoms: _197  and  _199
REMARK   85  A    between atoms: _199  and  _200
REMARK   86  A    between atoms: _199  and  _202
REMARK   87  A    between atoms: _202  and  _203
REMARK   88  A    between atoms: _207  and  _208
REMARK   89  A    between atoms: _213  and  _215
REMARK   90  A    between atoms: _215  and  _216
REMARK   91  A    between atoms: _215  and  _218
REMARK   92  A    between atoms: _221  and  _223
REMARK   93  A    between atoms: _223  and  _224
REMARK   94  A    between atoms: _223  and  _226
REMARK   95  A    between atoms: _226  and  _227
REMARK   96  A    between atoms: _232  and  _234
REMARK   97  A    between atoms: _234  and  _235
REMARK   98  A    between atoms: _234  and  _237
REMARK   99  A    between atoms: _237  and  _238
REMARK  100  A    between atoms: _241  and  _243
REMARK  101  A    between atoms: _243  and  _244
REMARK  102  A    between atoms: _243  and  _246
REMARK  103  A    between atoms: _246  and  _247
REMARK  104  A    between atoms: _250  and  _252
REMARK  105  A    between atoms: _252  and  _253
REMARK  106  A    between atoms: _255  and  _257
REMARK  107  A    between atoms: _257  and  _258
REMARK  108  A    between atoms: _257  and  _260
REMARK  109  A    between atoms: _260  and  _261
REMARK  110  A    between atoms: _261  and  _262
REMARK  111  A    between atoms: _262  and  _263
REMARK  112  A    between atoms: _272  and  _274
REMARK  113  A    between atoms: _274  and  _275
REMARK  114  A    between atoms: _274  and  _277
REMARK  115  A    between atoms: _277  and  _278
REMARK  116  A    between atoms: _283  and  _285
REMARK  117  A    between atoms: _285  and  _286
REMARK  118  A    between atoms: _285  and  _288
REMARK  119  A    between atoms: _288  and  _289
REMARK  120  A    between atoms: _289  and  _290
REMARK  121  A    between atoms: _290  and  _291
REMARK  122  A    between atoms: _300  and  _302
REMARK  123  A    between atoms: _302  and  _303
REMARK  124  A    between atoms: _302  and  _305
REMARK  125  A    between atoms: _305  and  _306
REMARK  126  A    between atoms: _309  and  _311
REMARK  127  A    between atoms: _311  and  _312
REMARK  128  A    between atoms: _311  and  _314
REMARK  129  A    between atoms: _314  and  _315
REMARK  130  A    between atoms: _318  and  _320
REMARK  131  A    between atoms: _320  and  _321
REMARK  132  A    between atoms: _320  and  _323
REMARK  133  A    between atoms: _323  and  _324
REMARK  134  A    between atoms: _327  and  _329
REMARK  135  A    between atoms: _329  and  _330
REMARK  136  A    between atoms: _329  and  _332
REMARK  137  A    between atoms: _332  and  _333
REMARK  138  A    between atoms: _336  and  _338
REMARK  139  A    between atoms: _338  and  _339
REMARK  140  A    between atoms: _341  and  _343
REMARK  141  A    between atoms: _343  and  _344
REMARK  142  A    between atoms: _347  and  _349
REMARK  143  A    between atoms: _349  and  _350
REMARK  144  A    between atoms: _349  and  _352
REMARK  145  A    between atoms: _352  and  _353
REMARK  146  A    between atoms: _356  and  _358
REMARK  147  A    between atoms: _358  and  _359
REMARK  148  A    between atoms: _358  and  _361
REMARK  149  A    between atoms: _361  and  _362
REMARK  150  A    between atoms: _365  and  _367
REMARK  151  A    between atoms: _367  and  _368
REMARK  152  A    between atoms: _367  and  _370
REMARK  153  A    between atoms: _370  and  _371
REMARK  154  A    between atoms: _374  and  _376
REMARK  155  A    between atoms: _376  and  _377
REMARK  156  A    between atoms: _376  and  _379
REMARK  157  A    between atoms: _382  and  _384
REMARK  158  A    between atoms: _384  and  _385
REMARK  159  A    between atoms: _384  and  _387
REMARK  160  A    between atoms: _387  and  _388
REMARK  161  A    between atoms: _388  and  _389
REMARK  162  A    between atoms: _389  and  _390
REMARK  163  A    between atoms: _390  and  _391
REMARK  164  A    between atoms: _395  and  _397
REMARK  165  A    between atoms: _397  and  _398
REMARK  166  A    between atoms: _397  and  _400
REMARK  167  A    between atoms: _400  and  _401
REMARK  168  A    between atoms: _401  and  _402
REMARK  169  A    between atoms: _404  and  _406
REMARK  170  A    between atoms: _406  and  _407
REMARK  171  A    between atoms: _406  and  _409
REMARK  172  A    between atoms: _409  and  _410
REMARK  173  A    between atoms: _413  and  _415
REMARK  174  A    between atoms: _415  and  _416
REMARK  175  A    between atoms: _418  and  _420
REMARK  176  A    between atoms: _420  and  _421
REMARK  177  A    between atoms: _423  and  _425
REMARK  178  A    between atoms: _425  and  _426
REMARK  179  A    between atoms: _425  and  _428
REMARK  180  A    between atoms: _428  and  _429
REMARK  181  A    between atoms: _432  and  _434
REMARK  182  A    between atoms: _434  and  _435
REMARK  183  A    between atoms: _437  and  _439
REMARK  184  A    between atoms: _439  and  _440
REMARK  185  A    between atoms: _442  and  _444
REMARK  186  A    between atoms: _444  and  _445
REMARK  187  A    between atoms: _444  and  _447
REMARK  188  A    between atoms: _447  and  _448
REMARK  189  A    between atoms: _454  and  _456
REMARK  190  A    between atoms: _456  and  _457
REMARK  191  A    between atoms: _456  and  _459
REMARK  192  A    between atoms: _459  and  _460
REMARK  193  A    between atoms: _463  and  _465
REMARK  194  A    between atoms: _465  and  _466
REMARK  195  A    between atoms: _465  and  _468
REMARK  196  A    between atoms: _471  and  _473
REMARK  197  A    between atoms: _473  and  _474
REMARK  198  A    between atoms: _473  and  _476
REMARK  199  A    between atoms: _479  and  _481
REMARK  200  A    between atoms: _481  and  _482
REMARK  201  A    between atoms: _481  and  _484
REMARK  202  A    between atoms: _484  and  _485
REMARK  203  A    between atoms: _489  and  _490
REMARK  204  A    between atoms: _495  and  _497
REMARK  205  A    between atoms: _497  and  _498
REMARK  206  A    between atoms: _497  and  _500
REMARK  207  A    between atoms: _503  and  _505
REMARK  208  A    between atoms: _505  and  _506
REMARK  209  A    between atoms: _505  and  _508
REMARK  210  A    between atoms: _508  and  _509
REMARK  211  A    between atoms: _514  and  _516
REMARK  212  A    between atoms: _516  and  _517
REMARK  213  A    between atoms: _516  and  _519
REMARK  214  A    between atoms: _519  and  _520
REMARK  215  A    between atoms: _523  and  _525
REMARK  216  A    between atoms: _525  and  _526
REMARK  217  A    between atoms: _525  and  _528
REMARK  218  A    between atoms: _528  and  _529
REMARK  219  A    between atoms: _532  and  _534
REMARK  220  A    between atoms: _534  and  _535
REMARK  221  A    between atoms: _537  and  _539
REMARK  222  A    between atoms: _539  and  _540
REMARK  223  A    between atoms: _539  and  _542
REMARK  224  A    between atoms: _542  and  _543
REMARK  225  A    between atoms: _543  and  _544
REMARK  226  A    between atoms: _544  and  _545
REMARK  227  A    between atoms: _554  and  _556
REMARK  228  A    between atoms: _556  and  _557
REMARK  229  A    between atoms: _556  and  _559
REMARK  230  A    between atoms: _559  and  _560
REMARK                            x       y       z     vdW  Elec       q    Type
REMARK                         _______ _______ _______ _____ _____    ______ ____
ROOT
ATOM      1  CA  VAL A   1       4.326  16.969   5.333  0.00  0.00    +0.133 C 
ENDROOT
BRANCH   1   2
ATOM      2  CB  VAL A   1       5.159  16.353   6.466  0.00  0.00    +0.023 C 
ATOM      3  CG2 VAL A   1       4.293  15.679   7.516  0.00  0.00    +0.002 C 
ATOM      4  CG1 VAL A   1       6.018  17.416   7.148  0.00  0.00    +0.002 C 
ENDBRANCH   1   2
BRANCH   1   5
ATOM      5  N   VAL A   1       3.403  17.967   5.872  0.00  0.00    -0.239 NA
ATOM      6  H   VAL A   1       2.567  17.651   6.403  0.00  0.00    +0.142 HD
ENDBRANCH   1   5
BRANCH   1   7
ATOM      7  C   VAL A   1       3.534  15.891   4.601  0.00  0.00    +0.224 C 
ATOM      8  O   VAL A   1       2.335  15.766   4.789  0.00  0.00    -0.287 OA
ENDBRANCH   1   7
TORSDOF 3
REMARK  Name = ../refined-set-2016/3pwm/3pwm_pocket.pdb
REMARK  230 active torsions:
REMARK  status: ('A' for Active; 'I' for Inactive)
REMARK    1  A    between atoms: _1  and  _3
REMARK    2  A    between atoms: _3  and  _4
REMARK    3  A    between atoms: _3  and  _6
REMARK    4  A    between atoms: _6  and  _7
REMARK    5  A    between atoms: _7  and  _8
REMARK    6  A    between atoms: _8  and  _9
REMARK    7  A    between atoms: _18  and  _20
REMARK    8  A    between atoms: _20  and  _21
REMARK    9  A    between atoms: _20  and  _23
REMARK   10  A    between atoms: _23  and  _24
REMARK   11  A    between atoms: _27  and  _29
REMARK   12  A    between atoms: _29  and  _30
REMARK   13  A    between atoms: _29  and  _32
REMARK   14  A    between atoms: _32  and  _33
REMARK   15  A    between atoms: _36  and  _38
REMARK   16  A    between atoms: _38  and  _39
REMARK   17  A    between atoms: _38  and  _41
REMARK   18  A    between atoms: _41  and  _42
REMARK   19  A    between atoms: _45  and  _47
REMARK   20  A    between atoms: _47  and  _48
REMARK   21  A    between atoms: _47  and  _50
REMARK   22  A    between atoms: _50  and  _51
REMARK   23  A    between atoms: _54  and  _56
REMARK   24  A    between atoms: _56  and  _57
REMARK   25  A    between atoms: _59  and  _61
REMARK   26  A    between atoms: _61  and  _62
REMARK   27  A    between atoms: _65  and  _67
REMARK   28  A    between atoms: _67  and  _68
REMARK   29  A    between atoms: _67  and  _70
REMARK   30  A    between atoms: _70  and  _71
REMARK   31  A    between atoms: _74  and  _76
REMARK   32  A    between atoms: _76  and  _77
REMARK   33  A    between atoms: _76  and  _79
REMARK   34  A    between atoms: _79  and  _80
REMARK   35  A    between atoms: _83  and  _85
REMARK   36  A    between atoms: _85  and  _86
REMARK   37  A    between atoms: _85  and  _88
REMARK   38  A    between atoms: _88  and  _89
REMARK   39  A    between atoms: _92  and  _94
REMARK   40  A    between atoms: _94  and  _95
REMARK   41  A    between atoms: _94  and  _97
REMARK   42  A    between atoms: _100  and  _102
REMARK   43  A    between atoms: _102  and  _103
REMARK   44  A    between atoms: _102  and  _105
REMARK   45  A    between atoms: _105  and  _106
REMARK   46  A    between atoms: _106  and  _107
REMARK   47  A    between atoms: _107  and  _108
REMARK   48  A    between atoms: _108  and  _109
REMARK   49  A    between atoms: _113  and  _115
REMARK   50  A    between atoms: _115  and  _116
REMARK   51  A    between atoms: _115  and  _118
REMARK   52  A    between atoms: _118  and  _119
REMARK   53  A    between atoms: _119  and  _120
REMARK   54  A    between atoms: _122  and  _124
REMARK   55  A    between atoms: _124  and  _125
REMARK   56  A    between atoms: _124  and  _127
REMARK   57  A    between atoms: _127  and  _128
REMARK   58  A    between atoms: _131  and  _133
REMARK   59  A    between atoms: _133  and  _134
REMARK   60  A    between atoms: _136  and  _138
REMARK   61  A    between atoms: _138  and  _139
REMARK   62  A    between atoms: _141  and  _143
REMARK   63  A    between atoms: _143  and  _144
REMARK   64  A    between atoms: _143  and  _146
REMARK   65  A    between atoms: _146  and  _147
REMARK   66  A    between atoms: _150  and  _152
REMARK   67  A    between atoms: _152  and  _153
REMARK   68  A    between atoms: _155  and  _157
REMARK   69  A    between atoms: _157  and  _158
REMARK   70  A    between atoms: _160  and  _162
REMARK   71  A    between atoms: _162  and  _163
REMARK   72  A    between atoms: _162  and  _165
REMARK   73  A    between atoms: _165  and  _166
REMARK   74  A    between atoms: _172  and  _174
REMARK   75  A    between atoms: _174  and  _175
REMARK   76  A    between atoms: _174  and  _177
REMARK   77  A    between atoms: _177  and  _178
REMARK   78  A    between atoms: _181  and  _183
REMARK   79  A    between atoms: _183  and  _184
REMARK   80  A    between atoms: _183  and  _186
REMARK   81  A    between atoms: _189  and  _191
REMARK   82  A    between atoms: _191  and  _192
REMARK   83  A    between atoms: _191  and  _194
REMARK   84  A    between atoms: _197  and  _199
REMARK   85  A    between atoms: _199  and  _200
REMARK   86  A    between atoms: _199  and  _202
REMARK   87  A    between atoms: _202  and  _203
REMARK   88  A    between atoms: _207  and  _208
REMARK   89  A    between atoms: _213  and  _215
REMARK   90  A    between atoms: _215  and  _216
REMARK   91  A    between atoms: _215  and  _218
REMARK   92  A    between atoms: _221  and  _223
REMARK   93  A    between atoms: _223  and  _224
REMARK   94  A    between atoms: _223  and  _226
REMARK   95  A    between atoms: _226  and  _227
REMARK   96  A    between atoms: _232  and  _234
REMARK   97  A    between atoms: _234  and  _235
REMARK   98  A    between atoms: _234  and  _237
REMARK   99  A    between atoms: _237  and  _238
REMARK  100  A    between atoms: _241  and  _243
REMARK  101  A    between atoms: _243  and  _244
REMARK  102  A    between atoms: _243  and  _246
REMARK  103  A    between atoms: _246  and  _247
REMARK  104  A    between atoms: _250  and  _252
REMARK  105  A    between atoms: _252  and  _253
REMARK  106  A    between atoms: _255  and  _257
REMARK  107  A    between atoms: _257  and  _258
REMARK  108  A    between atoms: _257  and  _260
REMARK  109  A    between atoms: _260  and  _261
REMARK  110  A    between atoms: _261  and  _262
REMARK  111  A    between atoms: _262  and  _263
REMARK  112  A    between atoms: _272  and  _274
REMARK  113  A    between atoms: _274  and  _275
REMARK  114  A    between atoms: _274  and  _277
REMARK  115  A    between atoms: _277  and  _278
REMARK  116  A    between atoms: _283  and  _285
REMARK  117  A    between atoms: _285  and  _286
REMARK  118  A    between atoms: _285  and  _288
REMARK  119  A    between atoms: _288  and  _289
REMARK  120  A    between atoms: _289  and  _290
REMARK  121  A    between atoms: _290  and  _291
REMARK  122  A    between atoms: _300  and  _302
REMARK  123  A    between atoms: _302  and  _303
REMARK  124  A    between atoms: _302  and  _305
REMARK  125  A    between atoms: _305  and  _306
REMARK  126  A    between atoms: _309  and  _311
REMARK  127  A    between atoms: _311  and  _312
REMARK  128  A    between atoms: _311  and  _314
REMARK  129  A    between atoms: _314  and  _315
REMARK  130  A    between atoms: _318  and  _320
REMARK  131  A    between atoms: _320  and  _321
REMARK  132  A    between atoms: _320  and  _323
REMARK  133  A    between atoms: _323  and  _324
REMARK  134  A    between atoms: _327  and  _329
REMARK  135  A    between atoms: _329  and  _330
REMARK  136  A    between atoms: _329  and  _332
REMARK  137  A    between atoms: _332  and  _333
REMARK  138  A    between atoms: _336  and  _338
REMARK  139  A    between atoms: _338  and  _339
REMARK  140  A    between atoms: _341  and  _343
REMARK  141  A    between atoms: _343  and  _344
REMARK  142  A    between atoms: _347  and  _349
REMARK  143  A    between atoms: _349  and  _350
REMARK  144  A    between atoms: _349  and  _352
REMARK  145  A    between atoms: _352  and  _353
REMARK  146  A    between atoms: _356  and  _358
REMARK  147  A    between atoms: _358  and  _359
REMARK  148  A    between atoms: _358  and  _361
REMARK  149  A    between atoms: _361  and  _362
REMARK  150  A    between atoms: _365  and  _367
REMARK  151  A    between atoms: _367  and  _368
REMARK  152  A    between atoms: _367  and  _370
REMARK  153  A    between atoms: _370  and  _371
REMARK  154  A    between atoms: _374  and  _376
REMARK  155  A    between atoms: _376  and  _377
REMARK  156  A    between atoms: _376  and  _379
REMARK  157  A    between atoms: _382  and  _384
REMARK  158  A    between atoms: _384  and  _385
REMARK  159  A    between atoms: _384  and  _387
REMARK  160  A    between atoms: _387  and  _388
REMARK  161  A    between atoms: _388  and  _389
REMARK  162  A    between atoms: _389  and  _390
REMARK  163  A    between atoms: _390  and  _391
REMARK  164  A    between atoms: _395  and  _397
REMARK  165  A    between atoms: _397  and  _398
REMARK  166  A    between atoms: _397  and  _400
REMARK  167  A    between atoms: _400  and  _401
REMARK  168  A    between atoms: _401  and  _402
REMARK  169  A    between atoms: _404  and  _406
REMARK  170  A    between atoms: _406  and  _407
REMARK  171  A    between atoms: _406  and  _409
REMARK  172  A    between atoms: _409  and  _410
REMARK  173  A    between atoms: _413  and  _415
REMARK  174  A    between atoms: _415  and  _416
REMARK  175  A    between atoms: _418  and  _420
REMARK  176  A    between atoms: _420  and  _421
REMARK  177  A    between atoms: _423  and  _425
REMARK  178  A    between atoms: _425  and  _426
REMARK  179  A    between atoms: _425  and  _428
REMARK  180  A    between atoms: _428  and  _429
REMARK  181  A    between atoms: _432  and  _434
REMARK  182  A    between atoms: _434  and  _435
REMARK  183  A    between atoms: _437  and  _439
REMARK  184  A    between atoms: _439  and  _440
REMARK  185  A    between atoms: _442  and  _444
REMARK  186  A    between atoms: _444  and  _445
REMARK  187  A    between atoms: _444  and  _447
REMARK  188  A    between atoms: _447  and  _448
REMARK  189  A    between atoms: _454  and  _456
REMARK  190  A    between atoms: _456  and  _457
REMARK  191  A    between atoms: _456  and  _459
REMARK  192  A    between atoms: _459  and  _460
REMARK  193  A    between atoms: _463  and  _465
REMARK  194  A    between atoms: _465  and  _466
REMARK  195  A    between atoms: _465  and  _468
REMARK  196  A    between atoms: _471  and  _473
REMARK  197  A    between atoms: _473  and  _474
REMARK  198  A    between atoms: _473  and  _476
REMARK  199  A    between atoms: _479  and  _481
REMARK  200  A    between atoms: _481  and  _482
REMARK  201  A    between atoms: _481  and  _484
REMARK  202  A    between atoms: _484  and  _485
REMARK  203  A    between atoms: _489  and  _490
REMARK  204  A    between atoms: _495  and  _497
REMARK  205  A    between atoms: _497  and  _498
REMARK  206  A    between atoms: _497  and  _500
REMARK  207  A    between atoms: _503  and  _505
REMARK  208  A    between atoms: _505  and  _506
REMARK  209  A    between atoms: _505  and  _508
REMARK  210  A    between atoms: _508  and  _509
REMARK  211  A    between atoms: _514  and  _516
REMARK  212  A    between atoms: _516  and  _517
REMARK  213  A    between atoms: _516  and  _519
REMARK  214  A    between atoms: _519  and  _520
REMARK  215  A    between atoms: _523  and  _525
REMARK  216  A    between atoms: _525  and  _526
REMARK  217  A    between atoms: _525  and  _528
REMARK  218  A    between atoms: _528  and  _529
REMARK  219  A    between atoms: _532  and  _534
REMARK  220  A    between atoms: _534  and  _535
REMARK  221  A    between atoms: _537  and  _539
REMARK  222  A    between atoms: _539  and  _540
REMARK  223  A    between atoms: _539  and  _542
REMARK  224  A    between atoms: _542  and  _543
REMARK  225  A    between atoms: _543  and  _544
REMARK  226  A    between atoms: _544  and  _545
REMARK  227  A    between atoms: _554  and  _556
REMARK  228  A    between atoms: _556  and  _557
REMARK  229  A    between atoms: _556  and  _559
REMARK  230  A    between atoms: _559  and  _560
REMARK                            x       y       z     vdW  Elec       q    Type
REMARK                         _______ _______ _______ _____ _____    ______ ____
ROOT
ATOM      1  CA  VAL A   1       7.584  12.298   6.508  0.00  0.00    +0.133 C 
ENDROOT
BRANCH   1   2
ATOM      2  CB  VAL A   1       6.717  12.919   7.581  0.00  0.00    +0.023 C 
ATOM      3  CG2 VAL A   1       7.498  13.677   8.626  0.00  0.00    +0.002 C 
ATOM      4  CG1 VAL A   1       5.875  11.840   8.286  0.00  0.00    +0.002 C 
ENDBRANCH   1   2
BRANCH   1   5
ATOM      5  N   VAL A   1       8.406  11.197   6.991  0.00  0.00    -0.239 NA
ATOM      6  H   VAL A   1       9.045  11.328   7.801  0.00  0.00    +0.142 HD
ENDBRANCH   1   5
BRANCH   1   7
ATOM      7  C   VAL A   1       8.497  13.298   5.827  0.00  0.00    +0.224 C 
ATOM      8  O   VAL A   1       9.604  13.491   6.270  0.00  0.00    -0.287 OA
ENDBRANCH   1   7
TORSDOF 3
REMARK  Name = ../refined-set-2016/3pwm/3pwm_pocket.pdb
REMARK  230 active torsions:
REMARK  status: ('A' for Active; 'I' for Inactive)
REMARK    1  A    between atoms: _1  and  _3
REMARK    2  A    between atoms: _3  and  _4
REMARK    3  A    between atoms: _3  and  _6
REMARK    4  A    between atoms: _6  and  _7
REMARK    5  A    between atoms: _7  and  _8
REMARK    6  A    between atoms: _8  and  _9
REMARK    7  A    between atoms: _18  and  _20
REMARK    8  A    between atoms: _20  and  _21
REMARK    9  A    between atoms: _20  and  _23
REMARK   10  A    between atoms: _23  and  _24
REMARK   11  A    between atoms: _27  and  _29
REMARK   12  A    between atoms: _29  and  _30
REMARK   13  A    between atoms: _29  and  _32
REMARK   14  A    between atoms: _32  and  _33
REMARK   15  A    between atoms: _36  and  _38
REMARK   16  A    between atoms: _38  and  _39
REMARK   17  A    between atoms: _38  and  _41
REMARK   18  A    between atoms: _41  and  _42
REMARK   19  A    between atoms: _45  and  _47
REMARK   20  A    between atoms: _47  and  _48
REMARK   21  A    between atoms: _47  and  _50
REMARK   22  A    between atoms: _50  and  _51
REMARK   23  A    between atoms: _54  and  _56
REMARK   24  A    between atoms: _56  and  _57
REMARK   25  A    between atoms: _59  and  _61
REMARK   26  A    between atoms: _61  and  _62
REMARK   27  A    between atoms: _65  and  _67
REMARK   28  A    between atoms: _67  and  _68
REMARK   29  A    between atoms: _67  and  _70
REMARK   30  A    between atoms: _70  and  _71
REMARK   31  A    between atoms: _74  and  _76
REMARK   32  A    between atoms: _76  and  _77
REMARK   33  A    between atoms: _76  and  _79
REMARK   34  A    between atoms: _79  and  _80
REMARK   35  A    between atoms: _83  and  _85
REMARK   36  A    between atoms: _85  and  _86
REMARK   37  A    between atoms: _85  and  _88
REMARK   38  A    between atoms: _88  and  _89
REMARK   39  A    between atoms: _92  and  _94
REMARK   40  A    between atoms: _94  and  _95
REMARK   41  A    between atoms: _94  and  _97
REMARK   42  A    between atoms: _100  and  _102
REMARK   43  A    between atoms: _102  and  _103
REMARK   44  A    between atoms: _102  and  _105
REMARK   45  A    between atoms: _105  and  _106
REMARK   46  A    between atoms: _106  and  _107
REMARK   47  A    between atoms: _107  and  _108
REMARK   48  A    between atoms: _108  and  _109
REMARK   49  A    between atoms: _113  and  _115
REMARK   50  A    between atoms: _115  and  _116
REMARK   51  A    between atoms: _115  and  _118
REMARK   52  A    between atoms: _118  and  _119
REMARK   53  A    between atoms: _119  and  _120
REMARK   54  A    between atoms: _122  and  _124
REMARK   55  A    between atoms: _124  and  _125
REMARK   56  A    between atoms: _124  and  _127
REMARK   57  A    between atoms: _127  and  _128
REMARK   58  A    between atoms: _131  and  _133
REMARK   59  A    between atoms: _133  and  _134
REMARK   60  A    between atoms: _136  and  _138
REMARK   61  A    between atoms: _138  and  _139
REMARK   62  A    between atoms: _141  and  _143
REMARK   63  A    between atoms: _143  and  _144
REMARK   64  A    between atoms: _143  and  _146
REMARK   65  A    between atoms: _146  and  _147
REMARK   66  A    between atoms: _150  and  _152
REMARK   67  A    between atoms: _152  and  _153
REMARK   68  A    between atoms: _155  and  _157
REMARK   69  A    between atoms: _157  and  _158
REMARK   70  A    between atoms: _160  and  _162
REMARK   71  A    between atoms: _162  and  _163
REMARK   72  A    between atoms: _162  and  _165
REMARK   73  A    between atoms: _165  and  _166
REMARK   74  A    between atoms: _172  and  _174
REMARK   75  A    between atoms: _174  and  _175
REMARK   76  A    between atoms: _174  and  _177
REMARK   77  A    between atoms: _177  and  _178
REMARK   78  A    between atoms: _181  and  _183
REMARK   79  A    between atoms: _183  and  _184
REMARK   80  A    between atoms: _183  and  _186
REMARK   81  A    between atoms: _189  and  _191
REMARK   82  A    between atoms: _191  and  _192
REMARK   83  A    between atoms: _191  and  _194
REMARK   84  A    between atoms: _197  and  _199
REMARK   85  A    between atoms: _199  and  _200
REMARK   86  A    between atoms: _199  and  _202
REMARK   87  A    between atoms: _202  and  _203
REMARK   88  A    between atoms: _207  and  _208
REMARK   89  A    between atoms: _213  and  _215
REMARK   90  A    between atoms: _215  and  _216
REMARK   91  A    between atoms: _215  and  _218
REMARK   92  A    between atoms: _221  and  _223
REMARK   93  A    between atoms: _223  and  _224
REMARK   94  A    between atoms: _223  and  _226
REMARK   95  A    between atoms: _226  and  _227
REMARK   96  A    between atoms: _232  and  _234
REMARK   97  A    between atoms: _234  and  _235
REMARK   98  A    between atoms: _234  and  _237
REMARK   99  A    between atoms: _237  and  _238
REMARK  100  A    between atoms: _241  and  _243
REMARK  101  A    between atoms: _243  and  _244
REMARK  102  A    between atoms: _243  and  _246
REMARK  103  A    between atoms: _246  and  _247
REMARK  104  A    between atoms: _250  and  _252
REMARK  105  A    between atoms: _252  and  _253
REMARK  106  A    between atoms: _255  and  _257
REMARK  107  A    between atoms: _257  and  _258
REMARK  108  A    between atoms: _257  and  _260
REMARK  109  A    between atoms: _260  and  _261
REMARK  110  A    between atoms: _261  and  _262
REMARK  111  A    between atoms: _262  and  _263
REMARK  112  A    between atoms: _272  and  _274
REMARK  113  A    between atoms: _274  and  _275
REMARK  114  A    between atoms: _274  and  _277
REMARK  115  A    between atoms: _277  and  _278
REMARK  116  A    between atoms: _283  and  _285
REMARK  117  A    between atoms: _285  and  _286
REMARK  118  A    between atoms: _285  and  _288
REMARK  119  A    between atoms: _288  and  _289
REMARK  120  A    between atoms: _289  and  _290
REMARK  121  A    between atoms: _290  and  _291
REMARK  122  A    between atoms: _300  and  _302
REMARK  123  A    between atoms: _302  and  _303
REMARK  124  A    between atoms: _302  and  _305
REMARK  125  A    between atoms: _305  and  _306
REMARK  126  A    between atoms: _309  and  _311
REMARK  127  A    between atoms: _311  and  _312
REMARK  128  A    between atoms: _311  and  _314
REMARK  129  A    between atoms: _314  and  _315
REMARK  130  A    between atoms: _318  and  _320
REMARK  131  A    between atoms: _320  and  _321
REMARK  132  A    between atoms: _320  and  _323
REMARK  133  A    between atoms: _323  and  _324
REMARK  134  A    between atoms: _327  and  _329
REMARK  135  A    between atoms: _329  and  _330
REMARK  136  A    between atoms: _329  and  _332
REMARK  137  A    between atoms: _332  and  _333
REMARK  138  A    between atoms: _336  and  _338
REMARK  139  A    between atoms: _338  and  _339
REMARK  140  A    between atoms: _341  and  _343
REMARK  141  A    between atoms: _343  and  _344
REMARK  142  A    between atoms: _347  and  _349
REMARK  143  A    between atoms: _349  and  _350
REMARK  144  A    between atoms: _349  and  _352
REMARK  145  A    between atoms: _352  and  _353
REMARK  146  A    between atoms: _356  and  _358
REMARK  147  A    between atoms: _358  and  _359
REMARK  148  A    between atoms: _358  and  _361
REMARK  149  A    between atoms: _361  and  _362
REMARK  150  A    between atoms: _365  and  _367
REMARK  151  A    between atoms: _367  and  _368
REMARK  152  A    between atoms: _367  and  _370
REMARK  153  A    between atoms: _370  and  _371
REMARK  154  A    between atoms: _374  and  _376
REMARK  155  A    between atoms: _376  and  _377
REMARK  156  A    between atoms: _376  and  _379
REMARK  157  A    between atoms: _382  and  _384
REMARK  158  A    between atoms: _384  and  _385
REMARK  159  A    between atoms: _384  and  _387
REMARK  160  A    between atoms: _387  and  _388
REMARK  161  A    between atoms: _388  and  _389
REMARK  162  A    between atoms: _389  and  _390
REMARK  163  A    between atoms: _390  and  _391
REMARK  164  A    between atoms: _395  and  _397
REMARK  165  A    between atoms: _397  and  _398
REMARK  166  A    between atoms: _397  and  _400
REMARK  167  A    between atoms: _400  and  _401
REMARK  168  A    between atoms: _401  and  _402
REMARK  169  A    between atoms: _404  and  _406
REMARK  170  A    between atoms: _406  and  _407
REMARK  171  A    between atoms: _406  and  _409
REMARK  172  A    between atoms: _409  and  _410
REMARK  173  A    between atoms: _413  and  _415
REMARK  174  A    between atoms: _415  and  _416
REMARK  175  A    between atoms: _418  and  _420
REMARK  176  A    between atoms: _420  and  _421
REMARK  177  A    between atoms: _423  and  _425
REMARK  178  A    between atoms: _425  and  _426
REMARK  179  A    between atoms: _425  and  _428
REMARK  180  A    between atoms: _428  and  _429
REMARK  181  A    between atoms: _432  and  _434
REMARK  182  A    between atoms: _434  and  _435
REMARK  183  A    between atoms: _437  and  _439
REMARK  184  A    between atoms: _439  and  _440
REMARK  185  A    between atoms: _442  and  _444
REMARK  186  A    between atoms: _444  and  _445
REMARK  187  A    between atoms: _444  and  _447
REMARK  188  A    between atoms: _447  and  _448
REMARK  189  A    between atoms: _454  and  _456
REMARK  190  A    between atoms: _456  and  _457
REMARK  191  A    between atoms: _456  and  _459
REMARK  192  A    between atoms: _459  and  _460
REMARK  193  A    between atoms: _463  and  _465
REMARK  194  A    between atoms: _465  and  _466
REMARK  195  A    between atoms: _465  and  _468
REMARK  196  A    between atoms: _471  and  _473
REMARK  197  A    between atoms: _473  and  _474
REMARK  198  A    between atoms: _473  and  _476
REMARK  199  A    between atoms: _479  and  _481
REMARK  200  A    between atoms: _481  and  _482
REMARK  201  A    between atoms: _481  and  _484
REMARK  202  A    between atoms: _484  and  _485
REMARK  203  A    between atoms: _489  and  _490
REMARK  204  A    between atoms: _495  and  _497
REMARK  205  A    between atoms: _497  and  _498
REMARK  206  A    between atoms: _497  and  _500
REMARK  207  A    between atoms: _503  and  _505
REMARK  208  A    between atoms: _505  and  _506
REMARK  209  A    between atoms: _505  and  _508
REMARK  210  A    between atoms: _508  and  _509
REMARK  211  A    between atoms: _514  and  _516
REMARK  212  A    between atoms: _516  and  _517
REMARK  213  A    between atoms: _516  and  _519
REMARK  214  A    between atoms: _519  and  _520
REMARK  215  A    between atoms: _523  and  _525
REMARK  216  A    between atoms: _525  and  _526
REMARK  217  A    between atoms: _525  and  _528
REMARK  218  A    between atoms: _528  and  _529
REMARK  219  A    between atoms: _532  and  _534
REMARK  220  A    between atoms: _534  and  _535
REMARK  221  A    between atoms: _537  and  _539
REMARK  222  A    between atoms: _539  and  _540
REMARK  223  A    between atoms: _539  and  _542
REMARK  224  A    between atoms: _542  and  _543
REMARK  225  A    between atoms: _543  and  _544
REMARK  226  A    between atoms: _544  and  _545
REMARK  227  A    between atoms: _554  and  _556
REMARK  228  A    between atoms: _556  and  _557
REMARK  229  A    between atoms: _556  and  _559
REMARK  230  A    between atoms: _559  and  _560
REMARK                            x       y       z     vdW  Elec       q    Type
REMARK                         _______ _______ _______ _____ _____    ______ ____
ROOT
ATOM      1  C   ILE A   5      15.528  13.164  11.450  0.00  0.00    +0.241 C 
ATOM      2  N   ILE A   6      16.395  12.402  12.098  0.00  0.00    -0.297 N 
ATOM      3  H   ILE A   6      17.292  12.822  12.416  0.00  0.00    +0.150 HD
ATOM      4  O   ILE A   5      14.490  12.772  10.910  0.00  0.00    -0.273 OA
ENDROOT
BRANCH   2   5
ATOM      5  CA  ILE A   6      16.135  10.976  12.386  0.00  0.00    +0.149 C 
BRANCH   5   6
ATOM      6  C   ILE A   6      15.481  10.929  13.768  0.00  0.00    +0.241 C 
ATOM      7  O   ILE A   6      16.160  11.241  14.758  0.00  0.00    -0.273 OA
ATOM      8  N   GLY A   7      14.178  10.609  13.806  0.00  0.00    -0.295 N 
ATOM      9  H   GLY A   7      13.680  10.379  12.922  0.00  0.00    +0.150 HD
BRANCH   8  10
ATOM     10  CA  GLY A   7      13.459  10.579  15.054  0.00  0.00    +0.176 C 
BRANCH  10  11
ATOM     11  C   GLY A   7      13.387   9.180  15.665  0.00  0.00    +0.243 C 
ATOM     12  N   ARG A   8      12.689   9.076  16.782  0.00  0.00    -0.297 N 
ATOM     13  H   ARG A   8      12.106   9.882  17.087  0.00  0.00    +0.150 HD
ATOM     14  O   GLY A   7      13.993   8.218  15.162  0.00  0.00    -0.273 OA
BRANCH  12  15
ATOM     15  CA  ARG A   8      12.708   7.876  17.598  0.00  0.00    +0.149 C 
BRANCH  15  16
ATOM     16  C   ARG A   8      12.201   6.678  16.824  0.00  0.00    +0.241 C 
ATOM     17  O   ARG A   8      12.686   5.566  17.104  0.00  0.00    -0.273 OA
ATOM     18  N   ASN A   9      11.279   6.862  15.879  0.00  0.00    -0.298 N 
ATOM     19  H   ASN A   9      10.935   7.817  15.652  0.00  0.00    +0.150 HD
BRANCH  18  20
ATOM     20  CA  ASN A   9      10.762   5.693  15.169  0.00  0.00    +0.146 C 
BRANCH  20  21
ATOM     21  C   ASN A   9      11.859   4.933  14.428  0.00  0.00    +0.227 C 
ATOM     22  O   ASN A   9      11.674   3.733  14.232  0.00  0.00    -0.286 OA
ENDBRANCH  20  21
BRANCH  20  23
ATOM     23  CB  ASN A   9       9.678   6.089  14.188  0.00  0.00    +0.112 C 
BRANCH  23  24
ATOM     24  CG  ASN A   9      10.167   6.851  12.971  0.00  0.00    +0.222 C 
ATOM     25  OD1 ASN A   9      10.924   7.795  13.049  0.00  0.00    -0.275 OA
ATOM     26  ND2 ASN A   9       9.722   6.388  11.813  0.00  0.00    -0.329 N 
ATOM     27 HD21 ASN A   9       9.073   5.575  11.793  0.00  0.00    +0.145 HD
ATOM     28 HD22 ASN A   9      10.021   6.837  10.924  0.00  0.00    +0.145 HD
ENDBRANCH  23  24
ENDBRANCH  20  23
ENDBRANCH  18  20
ENDBRANCH  15  16
BRANCH  15  29
ATOM     29  CB  ARG A   8      11.892   8.017  18.880  0.00  0.00    +0.033 C 
BRANCH  29  30
ATOM     30  CG  ARG A   8      12.505   9.058  19.812  0.00  0.00    +0.045 C 
BRANCH  30  31
ATOM     31  CD  ARG A   8      11.836   9.094  21.164  0.00  0.00    +0.174 C 
BRANCH  31  32
ATOM     32  NE  ARG A   8      10.448   9.545  20.997  0.00  0.00    -0.265 N 
ATOM     33  CZ  ARG A   8       9.371   8.788  20.943  0.00  0.00    +0.342 C 
ATOM     34  NH2 ARG A   8       9.409   7.457  21.070  0.00  0.00    -0.292 N 
ATOM     35 HH21 ARG A   8      10.318   6.975  21.219  0.00  0.00    +0.255 HD
ATOM     36 HH22 ARG A   8       8.529   6.905  21.020  0.00  0.00    +0.255 HD
ATOM     37  NH1 ARG A   8       8.170   9.327  20.771  0.00  0.00    -0.292 N 
ATOM     38 HH11 ARG A   8       7.328   8.718  20.730  0.00  0.00    +0.255 HD
ATOM     39 HH12 ARG A   8       8.071  10.358  20.677  0.00  0.00    +0.255 HD
ATOM     40  HE  ARG A   8      10.300  10.571  20.912  0.00  0.00    +0.259 HD
ENDBRANCH  31  32
ENDBRANCH  30  31
ENDBRANCH  29  30
ENDBRANCH  15  29
ENDBRANCH  12  15
ENDBRANCH  10  11
ENDBRANCH   8  10
ENDBRANCH   5   6
BRANCH   5  41
ATOM     41  CB  ILE A   6      17.382  10.095  12.343  0.00  0.00    +0.027 C 
ATOM     42  CG2 ILE A   6      17.042   8.635  12.652  0.00  0.00    +0.002 C 
BRANCH  41  43
ATOM     43  CG1 ILE A   6      18.112  10.208  11.013  0.00  0.00    +0.002 C 
ATOM     44  CD1 ILE A   6      17.252   9.930   9.772  0.00  0.00    +0.000 C 
ENDBRANCH  41  43
ENDBRANCH   5  41
ENDBRANCH   2   5
BRANCH   1  45
ATOM     45  CA  ILE A   5      15.831  14.649  11.420  0.00  0.00    +0.149 C 
BRANCH  45  48
ATOM     46  C   ASN A   4      16.962  15.797   9.601  0.00  0.00    +0.241 C 
ATOM     47  O   ASN A   4      18.018  15.944  10.206  0.00  0.00    -0.273 OA
ATOM     48  N   ILE A   5      15.911  15.167  10.063  0.00  0.00    -0.297 N 
ATOM     49  H   ILE A   5      15.096  15.031   9.431  0.00  0.00    +0.150 HD
BRANCH  46  50
ATOM     50  CA  ASN A   4      16.816  16.379   8.194  0.00  0.00    +0.158 C 
BRANCH  50  53
ATOM     51  C   VAL A   3      16.560  18.719   8.791  0.00  0.00    +0.241 C 
ATOM     52  O   VAL A   3      15.395  18.513   9.170  0.00  0.00    -0.273 OA
ATOM     53  N   ASN A   4      17.284  17.773   8.244  0.00  0.00    -0.297 N 
ATOM     54  H   ASN A   4      18.210  18.013   7.836  0.00  0.00    +0.150 HD
BRANCH  51  55
ATOM     55  CA  VAL A   3      17.128  20.098   9.045  0.00  0.00    +0.149 C 
BRANCH  55  57
ATOM     56  C   PRO A   2      16.226  22.236   8.246  0.00  0.00    +0.245 C 
ATOM     57  N   VAL A   3      16.057  21.055   8.791  0.00  0.00    -0.297 N 
ATOM     58  H   VAL A   3      15.091  20.782   9.061  0.00  0.00    +0.150 HD
ATOM     59  O   PRO A   2      17.326  22.582   7.816  0.00  0.00    -0.273 OA
BRANCH  56  65
ATOM     60  C   THR A   1      13.227  21.764   7.390  0.00  0.00    +0.244 C 
ATOM     61  N   PRO A   2      13.722  22.536   8.372  0.00  0.00    -0.264 N 
ATOM     62  CD  PRO A   2      13.090  22.912   9.656  0.00  0.00    +0.120 C 
ATOM     63  CG  PRO A   2      14.015  23.905  10.259  0.00  0.00    -0.007 C 
ATOM     64  CB  PRO A   2      15.134  24.162   9.357  0.00  0.00    -0.000 C 
ATOM     65  CA  PRO A   2      15.021  23.176   8.185  0.00  0.00    +0.175 C 
ATOM     66  O   THR A   1      13.841  21.633   6.316  0.00  0.00    -0.273 OA
BRANCH  60  67
ATOM     67  CA  THR A   1      11.893  21.049   7.632  0.00  0.00    +0.172 C 
BRANCH  67  68
ATOM     68  N   THR A   1      11.109  21.001   6.408  0.00  0.00    -0.236 NA
ATOM     69  H   THR A   1      11.059  20.116   5.864  0.00  0.00    +0.142 HD
ENDBRANCH  67  68
BRANCH  67  70
ATOM     70  CB  THR A   1      12.119  19.635   8.202  0.00  0.00    +0.135 C 
ATOM     71  CG2 THR A   1      12.819  18.730   7.220  0.00  0.00    +0.034 C 
BRANCH  70  72
ATOM     72  OG1 THR A   1      12.943  19.740   9.376  0.00  0.00    -0.383 OA
ATOM     73  HG1 THR A   1      13.811  20.149   9.133  0.00  0.00    +0.210 HD
ENDBRANCH  70  72
ENDBRANCH  67  70
ENDBRANCH  60  67
ENDBRANCH  56  65
ENDBRANCH  55  57
BRANCH  55  74
ATOM     74  CB  VAL A   3      17.653  20.244  10.493  0.00  0.00    +0.027 C 
ATOM     75  CG2 VAL A   3      18.690  19.195  10.828  0.00  0.00    +0.002 C 
ATOM     76  CG1 VAL A   3      18.263  21.628  10.763  0.00  0.00    +0.002 C 
ENDBRANCH  55  74
ENDBRANCH  51  55
ENDBRANCH  50  53
BRANCH  50  77
ATOM     77  CB  ASN A   4      17.663  15.587   7.230  0.00  0.00    +0.114 C 
BRANCH  77  78
ATOM     78  CG  ASN A   4      17.581  16.081   5.799  0.00  0.00    +0.222 C 
ATOM     79  OD1 ASN A   4      16.439  16.354   5.362  0.00  0.00    -0.275 OA
ATOM     80  ND2 ASN A   4      18.735  16.180   5.155  0.00  0.00    -0.329 N 
ATOM     81 HD21 ASN A   4      19.621  15.920   5.633  0.00  0.00    +0.145 HD
ATOM     82 HD22 ASN A   4      18.754  16.518   4.171  0.00  0.00    +0.145 HD
ENDBRANCH  77  78
ENDBRANCH  50  77
ENDBRANCH  46  50
ENDBRANCH  45  48
BRANCH  45  83
ATOM     83  CB  ILE A   5      14.716  15.375  12.221  0.00  0.00    +0.027 C 
ATOM     84  CG2 ILE A   5      14.414  14.609  13.491  0.00  0.00    +0.002 C 
BRANCH  83  85
ATOM     85  CG1 ILE A   5      15.047  16.853  12.410  0.00  0.00    +0.002 C 
ATOM     86  CD1 ILE A   5      13.784  17.634  12.715  0.00  0.00    +0.000 C 
ENDBRANCH  83  85
ENDBRANCH  45  83
ENDBRANCH   1  45
TORSDOF 32
REMARK  Name = ../refined-set-2016/3pwm/3pwm_pocket.pdb
REMARK  230 active torsions:
REMARK  status: ('A' for Active; 'I' for Inactive)
REMARK    1  A    between atoms: _1  and  _3
REMARK    2  A    between atoms: _3  and  _4
REMARK    3  A    between atoms: _3  and  _6
REMARK    4  A    between atoms: _6  and  _7
REMARK    5  A    between atoms: _7  and  _8
REMARK    6  A    between atoms: _8  and  _9
REMARK    7  A    between atoms: _18  and  _20
REMARK    8  A    between atoms: _20  and  _21
REMARK    9  A    between atoms: _20  and  _23
REMARK   10  A    between atoms: _23  and  _24
REMARK   11  A    between atoms: _27  and  _29
REMARK   12  A    between atoms: _29  and  _30
REMARK   13  A    between atoms: _29  and  _32
REMARK   14  A    between atoms: _32  and  _33
REMARK   15  A    between atoms: _36  and  _38
REMARK   16  A    between atoms: _38  and  _39
REMARK   17  A    between atoms: _38  and  _41
REMARK   18  A    between atoms: _41  and  _42
REMARK   19  A    between atoms: _45  and  _47
REMARK   20  A    between atoms: _47  and  _48
REMARK   21  A    between atoms: _47  and  _50
REMARK   22  A    between atoms: _50  and  _51
REMARK   23  A    between atoms: _54  and  _56
REMARK   24  A    between atoms: _56  and  _57
REMARK   25  A    between atoms: _59  and  _61
REMARK   26  A    between atoms: _61  and  _62
REMARK   27  A    between atoms: _65  and  _67
REMARK   28  A    between atoms: _67  and  _68
REMARK   29  A    between atoms: _67  and  _70
REMARK   30  A    between atoms: _70  and  _71
REMARK   31  A    between atoms: _74  and  _76
REMARK   32  A    between atoms: _76  and  _77
REMARK   33  A    between atoms: _76  and  _79
REMARK   34  A    between atoms: _79  and  _80
REMARK   35  A    between atoms: _83  and  _85
REMARK   36  A    between atoms: _85  and  _86
REMARK   37  A    between atoms: _85  and  _88
REMARK   38  A    between atoms: _88  and  _89
REMARK   39  A    between atoms: _92  and  _94
REMARK   40  A    between atoms: _94  and  _95
REMARK   41  A    between atoms: _94  and  _97
REMARK   42  A    between atoms: _100  and  _102
REMARK   43  A    between atoms: _102  and  _103
REMARK   44  A    between atoms: _102  and  _105
REMARK   45  A    between atoms: _105  and  _106
REMARK   46  A    between atoms: _106  and  _107
REMARK   47  A    between atoms: _107  and  _108
REMARK   48  A    between atoms: _108  and  _109
REMARK   49  A    between atoms: _113  and  _115
REMARK   50  A    between atoms: _115  and  _116
REMARK   51  A    between atoms: _115  and  _118
REMARK   52  A    between atoms: _118  and  _119
REMARK   53  A    between atoms: _119  and  _120
REMARK   54  A    between atoms: _122  and  _124
REMARK   55  A    between atoms: _124  and  _125
REMARK   56  A    between atoms: _124  and  _127
REMARK   57  A    between atoms: _127  and  _128
REMARK   58  A    between atoms: _131  and  _133
REMARK   59  A    between atoms: _133  and  _134
REMARK   60  A    between atoms: _136  and  _138
REMARK   61  A    between atoms: _138  and  _139
REMARK   62  A    between atoms: _141  and  _143
REMARK   63  A    between atoms: _143  and  _144
REMARK   64  A    between atoms: _143  and  _146
REMARK   65  A    between atoms: _146  and  _147
REMARK   66  A    between atoms: _150  and  _152
REMARK   67  A    between atoms: _152  and  _153
REMARK   68  A    between atoms: _155  and  _157
REMARK   69  A    between atoms: _157  and  _158
REMARK   70  A    between atoms: _160  and  _162
REMARK   71  A    between atoms: _162  and  _163
REMARK   72  A    between atoms: _162  and  _165
REMARK   73  A    between atoms: _165  and  _166
REMARK   74  A    between atoms: _172  and  _174
REMARK   75  A    between atoms: _174  and  _175
REMARK   76  A    between atoms: _174  and  _177
REMARK   77  A    between atoms: _177  and  _178
REMARK   78  A    between atoms: _181  and  _183
REMARK   79  A    between atoms: _183  and  _184
REMARK   80  A    between atoms: _183  and  _186
REMARK   81  A    between atoms: _189  and  _191
REMARK   82  A    between atoms: _191  and  _192
REMARK   83  A    between atoms: _191  and  _194
REMARK   84  A    between atoms: _197  and  _199
REMARK   85  A    between atoms: _199  and  _200
REMARK   86  A    between atoms: _199  and  _202
REMARK   87  A    between atoms: _202  and  _203
REMARK   88  A    between atoms: _207  and  _208
REMARK   89  A    between atoms: _213  and  _215
REMARK   90  A    between atoms: _215  and  _216
REMARK   91  A    between atoms: _215  and  _218
REMARK   92  A    between atoms: _221  and  _223
REMARK   93  A    between atoms: _223  and  _224
REMARK   94  A    between atoms: _223  and  _226
REMARK   95  A    between atoms: _226  and  _227
REMARK   96  A    between atoms: _232  and  _234
REMARK   97  A    between atoms: _234  and  _235
REMARK   98  A    between atoms: _234  and  _237
REMARK   99  A    between atoms: _237  and  _238
REMARK  100  A    between atoms: _241  and  _243
REMARK  101  A    between atoms: _243  and  _244
REMARK  102  A    between atoms: _243  and  _246
REMARK  103  A    between atoms: _246  and  _247
REMARK  104  A    between atoms: _250  and  _252
REMARK  105  A    between atoms: _252  and  _253
REMARK  106  A    between atoms: _255  and  _257
REMARK  107  A    between atoms: _257  and  _258
REMARK  108  A    between atoms: _257  and  _260
REMARK  109  A    between atoms: _260  and  _261
REMARK  110  A    between atoms: _261  and  _262
REMARK  111  A    between atoms: _262  and  _263
REMARK  112  A    between atoms: _272  and  _274
REMARK  113  A    between atoms: _274  and  _275
REMARK  114  A    between atoms: _274  and  _277
REMARK  115  A    between atoms: _277  and  _278
REMARK  116  A    between atoms: _283  and  _285
REMARK  117  A    between atoms: _285  and  _286
REMARK  118  A    between atoms: _285  and  _288
REMARK  119  A    between atoms: _288  and  _289
REMARK  120  A    between atoms: _289  and  _290
REMARK  121  A    between atoms: _290  and  _291
REMARK  122  A    between atoms: _300  and  _302
REMARK  123  A    between atoms: _302  and  _303
REMARK  124  A    between atoms: _302  and  _305
REMARK  125  A    between atoms: _305  and  _306
REMARK  126  A    between atoms: _309  and  _311
REMARK  127  A    between atoms: _311  and  _312
REMARK  128  A    between atoms: _311  and  _314
REMARK  129  A    between atoms: _314  and  _315
REMARK  130  A    between atoms: _318  and  _320
REMARK  131  A    between atoms: _320  and  _321
REMARK  132  A    between atoms: _320  and  _323
REMARK  133  A    between atoms: _323  and  _324
REMARK  134  A    between atoms: _327  and  _329
REMARK  135  A    between atoms: _329  and  _330
REMARK  136  A    between atoms: _329  and  _332
REMARK  137  A    between atoms: _332  and  _333
REMARK  138  A    between atoms: _336  and  _338
REMARK  139  A    between atoms: _338  and  _339
REMARK  140  A    between atoms: _341  and  _343
REMARK  141  A    between atoms: _343  and  _344
REMARK  142  A    between atoms: _347  and  _349
REMARK  143  A    between atoms: _349  and  _350
REMARK  144  A    between atoms: _349  and  _352
REMARK  145  A    between atoms: _352  and  _353
REMARK  146  A    between atoms: _356  and  _358
REMARK  147  A    between atoms: _358  and  _359
REMARK  148  A    between atoms: _358  and  _361
REMARK  149  A    between atoms: _361  and  _362
REMARK  150  A    between atoms: _365  and  _367
REMARK  151  A    between atoms: _367  and  _368
REMARK  152  A    between atoms: _367  and  _370
REMARK  153  A    between atoms: _370  and  _371
REMARK  154  A    between atoms: _374  and  _376
REMARK  155  A    between atoms: _376  and  _377
REMARK  156  A    between atoms: _376  and  _379
REMARK  157  A    between atoms: _382  and  _384
REMARK  158  A    between atoms: _384  and  _385
REMARK  159  A    between atoms: _384  and  _387
REMARK  160  A    between atoms: _387  and  _388
REMARK  161  A    between atoms: _388  and  _389
REMARK  162  A    between atoms: _389  and  _390
REMARK  163  A    between atoms: _390  and  _391
REMARK  164  A    between atoms: _395  and  _397
REMARK  165  A    between atoms: _397  and  _398
REMARK  166  A    between atoms: _397  and  _400
REMARK  167  A    between atoms: _400  and  _401
REMARK  168  A    between atoms: _401  and  _402
REMARK  169  A    between atoms: _404  and  _406
REMARK  170  A    between atoms: _406  and  _407
REMARK  171  A    between atoms: _406  and  _409
REMARK  172  A    between atoms: _409  and  _410
REMARK  173  A    between atoms: _413  and  _415
REMARK  174  A    between atoms: _415  and  _416
REMARK  175  A    between atoms: _418  and  _420
REMARK  176  A    between atoms: _420  and  _421
REMARK  177  A    between atoms: _423  and  _425
REMARK  178  A    between atoms: _425  and  _426
REMARK  179  A    between atoms: _425  and  _428
REMARK  180  A    between atoms: _428  and  _429
REMARK  181  A    between atoms: _432  and  _434
REMARK  182  A    between atoms: _434  and  _435
REMARK  183  A    between atoms: _437  and  _439
REMARK  184  A    between atoms: _439  and  _440
REMARK  185  A    between atoms: _442  and  _444
REMARK  186  A    between atoms: _444  and  _445
REMARK  187  A    between atoms: _444  and  _447
REMARK  188  A    between atoms: _447  and  _448
REMARK  189  A    between atoms: _454  and  _456
REMARK  190  A    between atoms: _456  and  _457
REMARK  191  A    between atoms: _456  and  _459
REMARK  192  A    between atoms: _459  and  _460
REMARK  193  A    between atoms: _463  and  _465
REMARK  194  A    between atoms: _465  and  _466
REMARK  195  A    between atoms: _465  and  _468
REMARK  196  A    between atoms: _471  and  _473
REMARK  197  A    between atoms: _473  and  _474
REMARK  198  A    between atoms: _473  and  _476
REMARK  199  A    between atoms: _479  and  _481
REMARK  200  A    between atoms: _481  and  _482
REMARK  201  A    between atoms: _481  and  _484
REMARK  202  A    between atoms: _484  and  _485
REMARK  203  A    between atoms: _489  and  _490
REMARK  204  A    between atoms: _495  and  _497
REMARK  205  A    between atoms: _497  and  _498
REMARK  206  A    between atoms: _497  and  _500
REMARK  207  A    between atoms: _503  and  _505
REMARK  208  A    between atoms: _505  and  _506
REMARK  209  A    between atoms: _505  and  _508
REMARK  210  A    between atoms: _508  and  _509
REMARK  211  A    between atoms: _514  and  _516
REMARK  212  A    between atoms: _516  and  _517
REMARK  213  A    between atoms: _516  and  _519
REMARK  214  A    between atoms: _519  and  _520
REMARK  215  A    between atoms: _523  and  _525
REMARK  216  A    between atoms: _525  and  _526
REMARK  217  A    between atoms: _525  and  _528
REMARK  218  A    between atoms: _528  and  _529
REMARK  219  A    between atoms: _532  and  _534
REMARK  220  A    between atoms: _534  and  _535
REMARK  221  A    between atoms: _537  and  _539
REMARK  222  A    between atoms: _539  and  _540
REMARK  223  A    between atoms: _539  and  _542
REMARK  224  A    between atoms: _542  and  _543
REMARK  225  A    between atoms: _543  and  _544
REMARK  226  A    between atoms: _544  and  _545
REMARK  227  A    between atoms: _554  and  _556
REMARK  228  A    between atoms: _556  and  _557
REMARK  229  A    between atoms: _556  and  _559
REMARK  230  A    between atoms: _559  and  _560
REMARK                            x       y       z     vdW  Elec       q    Type
REMARK                         _______ _______ _______ _____ _____    ______ ____
ROOT
ATOM      1  NE  ARG A   1       6.301  12.781  22.604  0.00  0.00    -0.265 N 
ATOM      2  CZ  ARG A   1       5.007  13.068  22.523  0.00  0.00    +0.342 C 
ATOM      3  NH2 ARG A   1       4.260  13.237  23.593  0.00  0.00    -0.292 N 
ATOM      4 HH21 ARG A   1       4.680  13.147  24.540  0.00  0.00    +0.255 HD
ATOM      5 HH22 ARG A   1       3.249  13.461  23.492  0.00  0.00    +0.255 HD
ATOM      6  NH1 ARG A   1       4.439  13.256  21.341  0.00  0.00    -0.292 N 
ATOM      7 HH11 ARG A   1       3.425  13.481  21.281  0.00  0.00    +0.255 HD
ATOM      8 HH12 ARG A   1       5.007  13.179  20.473  0.00  0.00    +0.255 HD
ATOM      9  HE  ARG A   1       6.829  12.730  21.710  0.00  0.00    +0.259 HD
ENDROOT
BRANCH   1  10
ATOM     10  CD  ARG A   1       7.049  12.531  23.826  0.00  0.00    +0.174 C 
BRANCH  10  11
ATOM     11  CG  ARG A   1       7.981  11.373  23.590  0.00  0.00    +0.045 C 
BRANCH  11  12
ATOM     12  CB  ARG A   1       8.699  10.996  24.848  0.00  0.00    +0.029 C 
BRANCH  12  13
ATOM     13  CA  ARG A   1       9.695   9.866  24.685  0.00  0.00    +0.133 C 
BRANCH  13  14
ATOM     14  N   ARG A   1       8.992   8.590  24.558  0.00  0.00    -0.239 NA
ATOM     15  H   ARG A   1       7.952   8.569  24.562  0.00  0.00    +0.142 HD
ENDBRANCH  13  14
BRANCH  13  16
ATOM     16  C   ARG A   1      10.606   9.819  25.915  0.00  0.00    +0.224 C 
ATOM     17  O   ARG A   1      10.166   9.384  26.917  0.00  0.00    -0.287 OA
ENDBRANCH  13  16
ENDBRANCH  12  13
ENDBRANCH  11  12
ENDBRANCH  10  11
ENDBRANCH   1  10
TORSDOF 6
REMARK  Name = ../refined-set-2016/3pwm/3pwm_pocket.pdb
REMARK  230 active torsions:
REMARK  status: ('A' for Active; 'I' for Inactive)
REMARK    1  A    between atoms: _1  and  _3
REMARK    2  A    between atoms: _3  and  _4
REMARK    3  A    between atoms: _3  and  _6
REMARK    4  A    between atoms: _6  and  _7
REMARK    5  A    between atoms: _7  and  _8
REMARK    6  A    between atoms: _8  and  _9
REMARK    7  A    between atoms: _18  and  _20
REMARK    8  A    between atoms: _20  and  _21
REMARK    9  A    between atoms: _20  and  _23
REMARK   10  A    between atoms: _23  and  _24
REMARK   11  A    between atoms: _27  and  _29
REMARK   12  A    between atoms: _29  and  _30
REMARK   13  A    between atoms: _29  and  _32
REMARK   14  A    between atoms: _32  and  _33
REMARK   15  A    between atoms: _36  and  _38
REMARK   16  A    between atoms: _38  and  _39
REMARK   17  A    between atoms: _38  and  _41
REMARK   18  A    between atoms: _41  and  _42
REMARK   19  A    between atoms: _45  and  _47
REMARK   20  A    between atoms: _47  and  _48
REMARK   21  A    between atoms: _47  and  _50
REMARK   22  A    between atoms: _50  and  _51
REMARK   23  A    between atoms: _54  and  _56
REMARK   24  A    between atoms: _56  and  _57
REMARK   25  A    between atoms: _59  and  _61
REMARK   26  A    between atoms: _61  and  _62
REMARK   27  A    between atoms: _65  and  _67
REMARK   28  A    between atoms: _67  and  _68
REMARK   29  A    between atoms: _67  and  _70
REMARK   30  A    between atoms: _70  and  _71
REMARK   31  A    between atoms: _74  and  _76
REMARK   32  A    between atoms: _76  and  _77
REMARK   33  A    between atoms: _76  and  _79
REMARK   34  A    between atoms: _79  and  _80
REMARK   35  A    between atoms: _83  and  _85
REMARK   36  A    between atoms: _85  and  _86
REMARK   37  A    between atoms: _85  and  _88
REMARK   38  A    between atoms: _88  and  _89
REMARK   39  A    between atoms: _92  and  _94
REMARK   40  A    between atoms: _94  and  _95
REMARK   41  A    between atoms: _94  and  _97
REMARK   42  A    between atoms: _100  and  _102
REMARK   43  A    between atoms: _102  and  _103
REMARK   44  A    between atoms: _102  and  _105
REMARK   45  A    between atoms: _105  and  _106
REMARK   46  A    between atoms: _106  and  _107
REMARK   47  A    between atoms: _107  and  _108
REMARK   48  A    between atoms: _108  and  _109
REMARK   49  A    between atoms: _113  and  _115
REMARK   50  A    between atoms: _115  and  _116
REMARK   51  A    between atoms: _115  and  _118
REMARK   52  A    between atoms: _118  and  _119
REMARK   53  A    between atoms: _119  and  _120
REMARK   54  A    between atoms: _122  and  _124
REMARK   55  A    between atoms: _124  and  _125
REMARK   56  A    between atoms: _124  and  _127
REMARK   57  A    between atoms: _127  and  _128
REMARK   58  A    between atoms: _131  and  _133
REMARK   59  A    between atoms: _133  and  _134
REMARK   60  A    between atoms: _136  and  _138
REMARK   61  A    between atoms: _138  and  _139
REMARK   62  A    between atoms: _141  and  _143
REMARK   63  A    between atoms: _143  and  _144
REMARK   64  A    between atoms: _143  and  _146
REMARK   65  A    between atoms: _146  and  _147
REMARK   66  A    between atoms: _150  and  _152
REMARK   67  A    between atoms: _152  and  _153
REMARK   68  A    between atoms: _155  and  _157
REMARK   69  A    between atoms: _157  and  _158
REMARK   70  A    between atoms: _160  and  _162
REMARK   71  A    between atoms: _162  and  _163
REMARK   72  A    between atoms: _162  and  _165
REMARK   73  A    between atoms: _165  and  _166
REMARK   74  A    between atoms: _172  and  _174
REMARK   75  A    between atoms: _174  and  _175
REMARK   76  A    between atoms: _174  and  _177
REMARK   77  A    between atoms: _177  and  _178
REMARK   78  A    between atoms: _181  and  _183
REMARK   79  A    between atoms: _183  and  _184
REMARK   80  A    between atoms: _183  and  _186
REMARK   81  A    between atoms: _189  and  _191
REMARK   82  A    between atoms: _191  and  _192
REMARK   83  A    between atoms: _191  and  _194
REMARK   84  A    between atoms: _197  and  _199
REMARK   85  A    between atoms: _199  and  _200
REMARK   86  A    between atoms: _199  and  _202
REMARK   87  A    between atoms: _202  and  _203
REMARK   88  A    between atoms: _207  and  _208
REMARK   89  A    between atoms: _213  and  _215
REMARK   90  A    between atoms: _215  and  _216
REMARK   91  A    between atoms: _215  and  _218
REMARK   92  A    between atoms: _221  and  _223
REMARK   93  A    between atoms: _223  and  _224
REMARK   94  A    between atoms: _223  and  _226
REMARK   95  A    between atoms: _226  and  _227
REMARK   96  A    between atoms: _232  and  _234
REMARK   97  A    between atoms: _234  and  _235
REMARK   98  A    between atoms: _234  and  _237
REMARK   99  A    between atoms: _237  and  _238
REMARK  100  A    between atoms: _241  and  _243
REMARK  101  A    between atoms: _243  and  _244
REMARK  102  A    between atoms: _243  and  _246
REMARK  103  A    between atoms: _246  and  _247
REMARK  104  A    between atoms: _250  and  _252
REMARK  105  A    between atoms: _252  and  _253
REMARK  106  A    between atoms: _255  and  _257
REMARK  107  A    between atoms: _257  and  _258
REMARK  108  A    between atoms: _257  and  _260
REMARK  109  A    between atoms: _260  and  _261
REMARK  110  A    between atoms: _261  and  _262
REMARK  111  A    between atoms: _262  and  _263
REMARK  112  A    between atoms: _272  and  _274
REMARK  113  A    between atoms: _274  and  _275
REMARK  114  A    between atoms: _274  and  _277
REMARK  115  A    between atoms: _277  and  _278
REMARK  116  A    between atoms: _283  and  _285
REMARK  117  A    between atoms: _285  and  _286
REMARK  118  A    between atoms: _285  and  _288
REMARK  119  A    between atoms: _288  and  _289
REMARK  120  A    between atoms: _289  and  _290
REMARK  121  A    between atoms: _290  and  _291
REMARK  122  A    between atoms: _300  and  _302
REMARK  123  A    between atoms: _302  and  _303
REMARK  124  A    between atoms: _302  and  _305
REMARK  125  A    between atoms: _305  and  _306
REMARK  126  A    between atoms: _309  and  _311
REMARK  127  A    between atoms: _311  and  _312
REMARK  128  A    between atoms: _311  and  _314
REMARK  129  A    between atoms: _314  and  _315
REMARK  130  A    between atoms: _318  and  _320
REMARK  131  A    between atoms: _320  and  _321
REMARK  132  A    between atoms: _320  and  _323
REMARK  133  A    between atoms: _323  and  _324
REMARK  134  A    between atoms: _327  and  _329
REMARK  135  A    between atoms: _329  and  _330
REMARK  136  A    between atoms: _329  and  _332
REMARK  137  A    between atoms: _332  and  _333
REMARK  138  A    between atoms: _336  and  _338
REMARK  139  A    between atoms: _338  and  _339
REMARK  140  A    between atoms: _341  and  _343
REMARK  141  A    between atoms: _343  and  _344
REMARK  142  A    between atoms: _347  and  _349
REMARK  143  A    between atoms: _349  and  _350
REMARK  144  A    between atoms: _349  and  _352
REMARK  145  A    between atoms: _352  and  _353
REMARK  146  A    between atoms: _356  and  _358
REMARK  147  A    between atoms: _358  and  _359
REMARK  148  A    between atoms: _358  and  _361
REMARK  149  A    between atoms: _361  and  _362
REMARK  150  A    between atoms: _365  and  _367
REMARK  151  A    between atoms: _367  and  _368
REMARK  152  A    between atoms: _367  and  _370
REMARK  153  A    between atoms: _370  and  _371
REMARK  154  A    between atoms: _374  and  _376
REMARK  155  A    between atoms: _376  and  _377
REMARK  156  A    between atoms: _376  and  _379
REMARK  157  A    between atoms: _382  and  _384
REMARK  158  A    between atoms: _384  and  _385
REMARK  159  A    between atoms: _384  and  _387
REMARK  160  A    between atoms: _387  and  _388
REMARK  161  A    between atoms: _388  and  _389
REMARK  162  A    between atoms: _389  and  _390
REMARK  163  A    between atoms: _390  and  _391
REMARK  164  A    between atoms: _395  and  _397
REMARK  165  A    between atoms: _397  and  _398
REMARK  166  A    between atoms: _397  and  _400
REMARK  167  A    between atoms: _400  and  _401
REMARK  168  A    between atoms: _401  and  _402
REMARK  169  A    between atoms: _404  and  _406
REMARK  170  A    between atoms: _406  and  _407
REMARK  171  A    between atoms: _406  and  _409
REMARK  172  A    between atoms: _409  and  _410
REMARK  173  A    between atoms: _413  and  _415
REMARK  174  A    between atoms: _415  and  _416
REMARK  175  A    between atoms: _418  and  _420
REMARK  176  A    between atoms: _420  and  _421
REMARK  177  A    between atoms: _423  and  _425
REMARK  178  A    between atoms: _425  and  _426
REMARK  179  A    between atoms: _425  and  _428
REMARK  180  A    between atoms: _428  and  _429
REMARK  181  A    between atoms: _432  and  _434
REMARK  182  A    between atoms: _434  and  _435
REMARK  183  A    between atoms: _437  and  _439
REMARK  184  A    between atoms: _439  and  _440
REMARK  185  A    between atoms: _442  and  _444
REMARK  186  A    between atoms: _444  and  _445
REMARK  187  A    between atoms: _444  and  _447
REMARK  188  A    between atoms: _447  and  _448
REMARK  189  A    between atoms: _454  and  _456
REMARK  190  A    between atoms: _456  and  _457
REMARK  191  A    between atoms: _456  and  _459
REMARK  192  A    between atoms: _459  and  _460
REMARK  193  A    between atoms: _463  and  _465
REMARK  194  A    between atoms: _465  and  _466
REMARK  195  A    between atoms: _465  and  _468
REMARK  196  A    between atoms: _471  and  _473
REMARK  197  A    between atoms: _473  and  _474
REMARK  198  A    between atoms: _473  and  _476
REMARK  199  A    between atoms: _479  and  _481
REMARK  200  A    between atoms: _481  and  _482
REMARK  201  A    between atoms: _481  and  _484
REMARK  202  A    between atoms: _484  and  _485
REMARK  203  A    between atoms: _489  and  _490
REMARK  204  A    between atoms: _495  and  _497
REMARK  205  A    between atoms: _497  and  _498
REMARK  206  A    between atoms: _497  and  _500
REMARK  207  A    between atoms: _503  and  _505
REMARK  208  A    between atoms: _505  and  _506
REMARK  209  A    between atoms: _505  and  _508
REMARK  210  A    between atoms: _508  and  _509
REMARK  211  A    between atoms: _514  and  _516
REMARK  212  A    between atoms: _516  and  _517
REMARK  213  A    between atoms: _516  and  _519
REMARK  214  A    between atoms: _519  and  _520
REMARK  215  A    between atoms: _523  and  _525
REMARK  216  A    between atoms: _525  and  _526
REMARK  217  A    between atoms: _525  and  _528
REMARK  218  A    between atoms: _528  and  _529
REMARK  219  A    between atoms: _532  and  _534
REMARK  220  A    between atoms: _534  and  _535
REMARK  221  A    between atoms: _537  and  _539
REMARK  222  A    between atoms: _539  and  _540
REMARK  223  A    between atoms: _539  and  _542
REMARK  224  A    between atoms: _542  and  _543
REMARK  225  A    between atoms: _543  and  _544
REMARK  226  A    between atoms: _544  and  _545
REMARK  227  A    between atoms: _554  and  _556
REMARK  228  A    between atoms: _556  and  _557
REMARK  229  A    between atoms: _556  and  _559
REMARK  230  A    between atoms: _559  and  _560
REMARK                            x       y       z     vdW  Elec       q    Type
REMARK                         _______ _______ _______ _____ _____    ______ ____
ROOT
ATOM      1  C   GLY A   5      18.122  19.070  18.741  0.00  0.00    +0.243 C 
ATOM      2  N   ALA A   6      18.162  19.391  20.029  0.00  0.00    -0.297 N 
ATOM      3  H   ALA A   6      18.252  18.622  20.723  0.00  0.00    +0.150 HD
ATOM      4  O   GLY A   5      17.970  19.945  17.867  0.00  0.00    -0.273 OA
ENDROOT
BRANCH   2   5
ATOM      5  CA  ALA A   6      18.087  20.753  20.523  0.00  0.00    +0.149 C 
ATOM      6  CB  ALA A   6      17.117  20.836  21.702  0.00  0.00    +0.031 C 
BRANCH   5   7
ATOM      7  C   ALA A   6      19.476  21.257  20.945  0.00  0.00    +0.241 C 
ATOM      8  O   ALA A   6      20.161  20.668  21.780  0.00  0.00    -0.273 OA
ATOM      9  N   ASP A   7      19.908  22.384  20.362  0.00  0.00    -0.297 N 
ATOM     10  H   ASP A   7      19.358  22.831  19.601  0.00  0.00    +0.150 HD
BRANCH   9  11
ATOM     11  CA  ASP A   7      21.163  22.972  20.815  0.00  0.00    +0.160 C 
BRANCH  11  12
ATOM     12  C   ASP A   7      21.075  23.487  22.259  0.00  0.00    +0.241 C 
ATOM     13  O   ASP A   7      22.034  23.427  23.018  0.00  0.00    -0.273 OA
ATOM     14  N   ASP A   8      19.907  24.023  22.543  0.00  0.00    -0.297 N 
ATOM     15  H   ASP A   8      19.142  23.843  21.861  0.00  0.00    +0.150 HD
BRANCH  14  16
ATOM     16  CA  ASP A   8      19.554  24.848  23.712  0.00  0.00    +0.160 C 
BRANCH  16  17
ATOM     17  C   ASP A   8      18.449  24.200  24.537  0.00  0.00    +0.241 C 
ATOM     18  N   THR A   9      18.451  24.500  25.835  0.00  0.00    -0.295 N 
ATOM     19  H   THR A   9      19.244  25.063  26.204  0.00  0.00    +0.150 HD
ATOM     20  O   ASP A   8      17.660  23.480  24.015  0.00  0.00    -0.273 OA
BRANCH  18  21
ATOM     21  CA  THR A   9      17.418  24.091  26.766  0.00  0.00    +0.176 C 
BRANCH  21  22
ATOM     22  C   THR A   9      16.336  25.145  26.801  0.00  0.00    +0.243 C 
ATOM     23  O   THR A   9      16.672  26.312  27.059  0.00  0.00    -0.273 OA
ATOM     24  N   VAL A  10      15.122  24.714  26.497  0.00  0.00    -0.298 N 
ATOM     25  H   VAL A  10      14.973  23.693  26.366  0.00  0.00    +0.150 HD
BRANCH  24  26
ATOM     26  CA  VAL A  10      13.988  25.610  26.339  0.00  0.00    +0.137 C 
BRANCH  26  27
ATOM     27  CB  VAL A  10      13.456  25.696  24.889  0.00  0.00    +0.026 C 
ATOM     28  CG2 VAL A  10      12.418  26.829  24.767  0.00  0.00    +0.002 C 
ATOM     29  CG1 VAL A  10      14.522  25.933  23.859  0.00  0.00    +0.002 C 
ENDBRANCH  26  27
BRANCH  26  30
ATOM     30  C   VAL A  10      12.889  25.152  27.321  0.00  0.00    +0.227 C 
ATOM     31  O   VAL A  10      12.460  24.026  27.239  0.00  0.00    -0.286 OA
ENDBRANCH  26  30
ENDBRANCH  24  26
ENDBRANCH  21  22
BRANCH  21  32
ATOM     32  CB  THR A   9      18.058  23.874  28.149  0.00  0.00    +0.137 C 
ATOM     33  CG2 THR A   9      16.999  23.642  29.226  0.00  0.00    +0.034 C 
BRANCH  32  34
ATOM     34  OG1 THR A   9      18.946  22.740  28.042  0.00  0.00    -0.382 OA
ATOM     35  HG1 THR A   9      19.375  22.574  28.919  0.00  0.00    +0.210 HD
ENDBRANCH  32  34
ENDBRANCH  21  32
ENDBRANCH  18  21
ENDBRANCH  16  17
BRANCH  16  36
ATOM     36  CB  ASP A   8      19.003  26.214  23.244  0.00  0.00    +0.143 C 
BRANCH  36  37
ATOM     37  CG  ASP A   8      19.935  26.922  22.254  0.00  0.00    +0.367 C 
ATOM     38  OD2 ASP A   8      21.102  26.997  22.546  0.00  0.00    -0.246 OA
ATOM     39  OD1 ASP A   8      19.450  27.340  21.202  0.00  0.00    -0.246 OA
ENDBRANCH  36  37
ENDBRANCH  16  36
ENDBRANCH  14  16
ENDBRANCH  11  12
BRANCH  11  40
ATOM     40  CB  ASP A   7      21.560  24.135  19.917  0.00  0.00    +0.143 C 
BRANCH  40  41
ATOM     41  CG  ASP A   7      21.812  23.824  18.457  0.00  0.00    +0.367 C 
ATOM     42  OD2 ASP A   7      22.016  22.646  18.093  0.00  0.00    -0.246 OA
ATOM     43  OD1 ASP A   7      21.829  24.809  17.663  0.00  0.00    -0.246 OA
ENDBRANCH  40  41
ENDBRANCH  11  40
ENDBRANCH   9  11
ENDBRANCH   5   7
ENDBRANCH   2   5
BRANCH   1  44
ATOM     44  CA  GLY A   5      18.245  17.601  18.393  0.00  0.00    +0.176 C 
BRANCH  44  47
ATOM     45  C   THR A   4      19.623  16.477  20.056  0.00  0.00    +0.243 C 
ATOM     46  O   THR A   4      20.681  16.927  19.613  0.00  0.00    -0.273 OA
ATOM     47  N   GLY A   5      18.434  16.700  19.533  0.00  0.00    -0.295 N 
ATOM     48  H   GLY A   5      17.605  16.222  19.941  0.00  0.00    +0.150 HD
BRANCH  45  49
ATOM     49  CA  THR A   4      19.688  15.605  21.293  0.00  0.00    +0.176 C 
BRANCH  49  52
ATOM     50  C   ASP A   3      17.841  16.505  22.561  0.00  0.00    +0.241 C 
ATOM     51  O   ASP A   3      18.345  17.630  22.546  0.00  0.00    -0.273 OA
ATOM     52  N   THR A   4      18.394  15.442  21.945  0.00  0.00    -0.295 N 
ATOM     53  H   THR A   4      17.907  14.523  21.935  0.00  0.00    +0.150 HD
BRANCH  50  54
ATOM     54  CA  ASP A   3      16.510  16.242  23.252  0.00  0.00    +0.160 C 
BRANCH  54  56
ATOM     55  C   LEU A   2      16.058  14.839  25.195  0.00  0.00    +0.241 C 
ATOM     56  N   ASP A   3      16.604  15.929  24.673  0.00  0.00    -0.297 N 
ATOM     57  H   ASP A   3      17.117  16.583  25.298  0.00  0.00    +0.150 HD
ATOM     58  O   LEU A   2      15.659  13.890  24.546  0.00  0.00    -0.273 OA
BRANCH  55  59
ATOM     59  CA  LEU A   2      15.945  14.864  26.724  0.00  0.00    +0.149 C 
BRANCH  59  61
ATOM     60  C   LEU A   1      13.823  15.964  26.985  0.00  0.00    +0.238 C 
ATOM     61  N   LEU A   2      14.542  14.870  27.094  0.00  0.00    -0.297 N 
ATOM     62  H   LEU A   2      14.100  13.998  27.450  0.00  0.00    +0.150 HD
ATOM     63  O   LEU A   1      14.299  17.070  26.714  0.00  0.00    -0.274 OA
BRANCH  60  64
ATOM     64  CA  LEU A   1      12.330  15.868  27.203  0.00  0.00    +0.145 C 
BRANCH  64  65
ATOM     65  N   LEU A   1      11.927  16.810  28.243  0.00  0.00    -0.238 NA
ATOM     66  H   LEU A   1      11.784  17.805  27.976  0.00  0.00    +0.142 HD
ENDBRANCH  64  65
BRANCH  64  67
ATOM     67  CB  LEU A   1      11.580  16.258  25.938  0.00  0.00    +0.026 C 
BRANCH  67  68
ATOM     68  CG  LEU A   1      11.676  15.394  24.711  0.00  0.00    +0.002 C 
ATOM     69  CD2 LEU A   1      11.052  14.030  24.937  0.00  0.00    +0.000 C 
ATOM     70  CD1 LEU A   1      10.968  16.069  23.566  0.00  0.00    +0.000 C 
ENDBRANCH  67  68
ENDBRANCH  64  67
ENDBRANCH  60  64
ENDBRANCH  59  61
BRANCH  59  71
ATOM     71  CB  LEU A   2      16.664  13.649  27.293  0.00  0.00    +0.029 C 
BRANCH  71  72
ATOM     72  CG  LEU A   2      16.572  13.481  28.821  0.00  0.00    +0.002 C 
ATOM     73  CD2 LEU A   2      17.197  14.625  29.567  0.00  0.00    +0.000 C 
ATOM     74  CD1 LEU A   2      17.266  12.174  29.224  0.00  0.00    +0.000 C 
ENDBRANCH  71  72
ENDBRANCH  59  71
ENDBRANCH  55  59
ENDBRANCH  54  56
BRANCH  54  75
ATOM     75  CB  ASP A   3      15.590  17.482  23.104  0.00  0.00    +0.143 C 
BRANCH  75  76
ATOM     76  CG  ASP A   3      15.184  17.750  21.665  0.00  0.00    +0.367 C 
ATOM     77  OD2 ASP A   3      14.315  18.637  21.508  0.00  0.00    -0.246 OA
ATOM     78  OD1 ASP A   3      15.731  17.072  20.746  0.00  0.00    -0.246 OA
ENDBRANCH  75  76
ENDBRANCH  54  75
ENDBRANCH  50  54
ENDBRANCH  49  52
BRANCH  49  79
ATOM     79  CB  THR A   4      20.293  14.236  20.900  0.00  0.00    +0.137 C 
ATOM     80  CG2 THR A   4      20.527  13.410  22.150  0.00  0.00    +0.034 C 
BRANCH  79  81
ATOM     81  OG1 THR A   4      19.392  13.550  20.028  0.00  0.00    -0.382 OA
ATOM     82  HG1 THR A   4      19.245  14.093  19.213  0.00  0.00    +0.210 HD
ENDBRANCH  79  81
ENDBRANCH  49  79
ENDBRANCH  45  49
ENDBRANCH  44  47
ENDBRANCH   1  44
TORSDOF 35
REMARK  Name = ../refined-set-2016/3pwm/3pwm_pocket.pdb
REMARK  230 active torsions:
REMARK  status: ('A' for Active; 'I' for Inactive)
REMARK    1  A    between atoms: _1  and  _3
REMARK    2  A    between atoms: _3  and  _4
REMARK    3  A    between atoms: _3  and  _6
REMARK    4  A    between atoms: _6  and  _7
REMARK    5  A    between atoms: _7  and  _8
REMARK    6  A    between atoms: _8  and  _9
REMARK    7  A    between atoms: _18  and  _20
REMARK    8  A    between atoms: _20  and  _21
REMARK    9  A    between atoms: _20  and  _23
REMARK   10  A    between atoms: _23  and  _24
REMARK   11  A    between atoms: _27  and  _29
REMARK   12  A    between atoms: _29  and  _30
REMARK   13  A    between atoms: _29  and  _32
REMARK   14  A    between atoms: _32  and  _33
REMARK   15  A    between atoms: _36  and  _38
REMARK   16  A    between atoms: _38  and  _39
REMARK   17  A    between atoms: _38  and  _41
REMARK   18  A    between atoms: _41  and  _42
REMARK   19  A    between atoms: _45  and  _47
REMARK   20  A    between atoms: _47  and  _48
REMARK   21  A    between atoms: _47  and  _50
REMARK   22  A    between atoms: _50  and  _51
REMARK   23  A    between atoms: _54  and  _56
REMARK   24  A    between atoms: _56  and  _57
REMARK   25  A    between atoms: _59  and  _61
REMARK   26  A    between atoms: _61  and  _62
REMARK   27  A    between atoms: _65  and  _67
REMARK   28  A    between atoms: _67  and  _68
REMARK   29  A    between atoms: _67  and  _70
REMARK   30  A    between atoms: _70  and  _71
REMARK   31  A    between atoms: _74  and  _76
REMARK   32  A    between atoms: _76  and  _77
REMARK   33  A    between atoms: _76  and  _79
REMARK   34  A    between atoms: _79  and  _80
REMARK   35  A    between atoms: _83  and  _85
REMARK   36  A    between atoms: _85  and  _86
REMARK   37  A    between atoms: _85  and  _88
REMARK   38  A    between atoms: _88  and  _89
REMARK   39  A    between atoms: _92  and  _94
REMARK   40  A    between atoms: _94  and  _95
REMARK   41  A    between atoms: _94  and  _97
REMARK   42  A    between atoms: _100  and  _102
REMARK   43  A    between atoms: _102  and  _103
REMARK   44  A    between atoms: _102  and  _105
REMARK   45  A    between atoms: _105  and  _106
REMARK   46  A    between atoms: _106  and  _107
REMARK   47  A    between atoms: _107  and  _108
REMARK   48  A    between atoms: _108  and  _109
REMARK   49  A    between atoms: _113  and  _115
REMARK   50  A    between atoms: _115  and  _116
REMARK   51  A    between atoms: _115  and  _118
REMARK   52  A    between atoms: _118  and  _119
REMARK   53  A    between atoms: _119  and  _120
REMARK   54  A    between atoms: _122  and  _124
REMARK   55  A    between atoms: _124  and  _125
REMARK   56  A    between atoms: _124  and  _127
REMARK   57  A    between atoms: _127  and  _128
REMARK   58  A    between atoms: _131  and  _133
REMARK   59  A    between atoms: _133  and  _134
REMARK   60  A    between atoms: _136  and  _138
REMARK   61  A    between atoms: _138  and  _139
REMARK   62  A    between atoms: _141  and  _143
REMARK   63  A    between atoms: _143  and  _144
REMARK   64  A    between atoms: _143  and  _146
REMARK   65  A    between atoms: _146  and  _147
REMARK   66  A    between atoms: _150  and  _152
REMARK   67  A    between atoms: _152  and  _153
REMARK   68  A    between atoms: _155  and  _157
REMARK   69  A    between atoms: _157  and  _158
REMARK   70  A    between atoms: _160  and  _162
REMARK   71  A    between atoms: _162  and  _163
REMARK   72  A    between atoms: _162  and  _165
REMARK   73  A    between atoms: _165  and  _166
REMARK   74  A    between atoms: _172  and  _174
REMARK   75  A    between atoms: _174  and  _175
REMARK   76  A    between atoms: _174  and  _177
REMARK   77  A    between atoms: _177  and  _178
REMARK   78  A    between atoms: _181  and  _183
REMARK   79  A    between atoms: _183  and  _184
REMARK   80  A    between atoms: _183  and  _186
REMARK   81  A    between atoms: _189  and  _191
REMARK   82  A    between atoms: _191  and  _192
REMARK   83  A    between atoms: _191  and  _194
REMARK   84  A    between atoms: _197  and  _199
REMARK   85  A    between atoms: _199  and  _200
REMARK   86  A    between atoms: _199  and  _202
REMARK   87  A    between atoms: _202  and  _203
REMARK   88  A    between atoms: _207  and  _208
REMARK   89  A    between atoms: _213  and  _215
REMARK   90  A    between atoms: _215  and  _216
REMARK   91  A    between atoms: _215  and  _218
REMARK   92  A    between atoms: _221  and  _223
REMARK   93  A    between atoms: _223  and  _224
REMARK   94  A    between atoms: _223  and  _226
REMARK   95  A    between atoms: _226  and  _227
REMARK   96  A    between atoms: _232  and  _234
REMARK   97  A    between atoms: _234  and  _235
REMARK   98  A    between atoms: _234  and  _237
REMARK   99  A    between atoms: _237  and  _238
REMARK  100  A    between atoms: _241  and  _243
REMARK  101  A    between atoms: _243  and  _244
REMARK  102  A    between atoms: _243  and  _246
REMARK  103  A    between atoms: _246  and  _247
REMARK  104  A    between atoms: _250  and  _252
REMARK  105  A    between atoms: _252  and  _253
REMARK  106  A    between atoms: _255  and  _257
REMARK  107  A    between atoms: _257  and  _258
REMARK  108  A    between atoms: _257  and  _260
REMARK  109  A    between atoms: _260  and  _261
REMARK  110  A    between atoms: _261  and  _262
REMARK  111  A    between atoms: _262  and  _263
REMARK  112  A    between atoms: _272  and  _274
REMARK  113  A    between atoms: _274  and  _275
REMARK  114  A    between atoms: _274  and  _277
REMARK  115  A    between atoms: _277  and  _278
REMARK  116  A    between atoms: _283  and  _285
REMARK  117  A    between atoms: _285  and  _286
REMARK  118  A    between atoms: _285  and  _288
REMARK  119  A    between atoms: _288  and  _289
REMARK  120  A    between atoms: _289  and  _290
REMARK  121  A    between atoms: _290  and  _291
REMARK  122  A    between atoms: _300  and  _302
REMARK  123  A    between atoms: _302  and  _303
REMARK  124  A    between atoms: _302  and  _305
REMARK  125  A    between atoms: _305  and  _306
REMARK  126  A    between atoms: _309  and  _311
REMARK  127  A    between atoms: _311  and  _312
REMARK  128  A    between atoms: _311  and  _314
REMARK  129  A    between atoms: _314  and  _315
REMARK  130  A    between atoms: _318  and  _320
REMARK  131  A    between atoms: _320  and  _321
REMARK  132  A    between atoms: _320  and  _323
REMARK  133  A    between atoms: _323  and  _324
REMARK  134  A    between atoms: _327  and  _329
REMARK  135  A    between atoms: _329  and  _330
REMARK  136  A    between atoms: _329  and  _332
REMARK  137  A    between atoms: _332  and  _333
REMARK  138  A    between atoms: _336  and  _338
REMARK  139  A    between atoms: _338  and  _339
REMARK  140  A    between atoms: _341  and  _343
REMARK  141  A    between atoms: _343  and  _344
REMARK  142  A    between atoms: _347  and  _349
REMARK  143  A    between atoms: _349  and  _350
REMARK  144  A    between atoms: _349  and  _352
REMARK  145  A    between atoms: _352  and  _353
REMARK  146  A    between atoms: _356  and  _358
REMARK  147  A    between atoms: _358  and  _359
REMARK  148  A    between atoms: _358  and  _361
REMARK  149  A    between atoms: _361  and  _362
REMARK  150  A    between atoms: _365  and  _367
REMARK  151  A    between atoms: _367  and  _368
REMARK  152  A    between atoms: _367  and  _370
REMARK  153  A    between atoms: _370  and  _371
REMARK  154  A    between atoms: _374  and  _376
REMARK  155  A    between atoms: _376  and  _377
REMARK  156  A    between atoms: _376  and  _379
REMARK  157  A    between atoms: _382  and  _384
REMARK  158  A    between atoms: _384  and  _385
REMARK  159  A    between atoms: _384  and  _387
REMARK  160  A    between atoms: _387  and  _388
REMARK  161  A    between atoms: _388  and  _389
REMARK  162  A    between atoms: _389  and  _390
REMARK  163  A    between atoms: _390  and  _391
REMARK  164  A    between atoms: _395  and  _397
REMARK  165  A    between atoms: _397  and  _398
REMARK  166  A    between atoms: _397  and  _400
REMARK  167  A    between atoms: _400  and  _401
REMARK  168  A    between atoms: _401  and  _402
REMARK  169  A    between atoms: _404  and  _406
REMARK  170  A    between atoms: _406  and  _407
REMARK  171  A    between atoms: _406  and  _409
REMARK  172  A    between atoms: _409  and  _410
REMARK  173  A    between atoms: _413  and  _415
REMARK  174  A    between atoms: _415  and  _416
REMARK  175  A    between atoms: _418  and  _420
REMARK  176  A    between atoms: _420  and  _421
REMARK  177  A    between atoms: _423  and  _425
REMARK  178  A    between atoms: _425  and  _426
REMARK  179  A    between atoms: _425  and  _428
REMARK  180  A    between atoms: _428  and  _429
REMARK  181  A    between atoms: _432  and  _434
REMARK  182  A    between atoms: _434  and  _435
REMARK  183  A    between atoms: _437  and  _439
REMARK  184  A    between atoms: _439  and  _440
REMARK  185  A    between atoms: _442  and  _444
REMARK  186  A    between atoms: _444  and  _445
REMARK  187  A    between atoms: _444  and  _447
REMARK  188  A    between atoms: _447  and  _448
REMARK  189  A    between atoms: _454  and  _456
REMARK  190  A    between atoms: _456  and  _457
REMARK  191  A    between atoms: _456  and  _459
REMARK  192  A    between atoms: _459  and  _460
REMARK  193  A    between atoms: _463  and  _465
REMARK  194  A    between atoms: _465  and  _466
REMARK  195  A    between atoms: _465  and  _468
REMARK  196  A    between atoms: _471  and  _473
REMARK  197  A    between atoms: _473  and  _474
REMARK  198  A    between atoms: _473  and  _476
REMARK  199  A    between atoms: _479  and  _481
REMARK  200  A    between atoms: _481  and  _482
REMARK  201  A    between atoms: _481  and  _484
REMARK  202  A    between atoms: _484  and  _485
REMARK  203  A    between atoms: _489  and  _490
REMARK  204  A    between atoms: _495  and  _497
REMARK  205  A    between atoms: _497  and  _498
REMARK  206  A    between atoms: _497  and  _500
REMARK  207  A    between atoms: _503  and  _505
REMARK  208  A    between atoms: _505  and  _506
REMARK  209  A    between atoms: _505  and  _508
REMARK  210  A    between atoms: _508  and  _509
REMARK  211  A    between atoms: _514  and  _516
REMARK  212  A    between atoms: _516  and  _517
REMARK  213  A    between atoms: _516  and  _519
REMARK  214  A    between atoms: _519  and  _520
REMARK  215  A    between atoms: _523  and  _525
REMARK  216  A    between atoms: _525  and  _526
REMARK  217  A    between atoms: _525  and  _528
REMARK  218  A    between atoms: _528  and  _529
REMARK  219  A    between atoms: _532  and  _534
REMARK  220  A    between atoms: _534  and  _535
REMARK  221  A    between atoms: _537  and  _539
REMARK  222  A    between atoms: _539  and  _540
REMARK  223  A    between atoms: _539  and  _542
REMARK  224  A    between atoms: _542  and  _543
REMARK  225  A    between atoms: _543  and  _544
REMARK  226  A    between atoms: _544  and  _545
REMARK  227  A    between atoms: _554  and  _556
REMARK  228  A    between atoms: _556  and  _557
REMARK  229  A    between atoms: _556  and  _559
REMARK  230  A    between atoms: _559  and  _560
REMARK                            x       y       z     vdW  Elec       q    Type
REMARK                         _______ _______ _______ _____ _____    ______ ____
ROOT
ATOM      1  C   GLY A   5      11.868  24.712  13.906  0.00  0.00    +0.243 C 
ATOM      2  N   ILE A   6      11.138  23.620  14.006  0.00  0.00    -0.297 N 
ATOM      3  H   ILE A   6      10.956  23.192  14.936  0.00  0.00    +0.150 HD
ATOM      4  O   GLY A   5      11.923  25.335  12.836  0.00  0.00    -0.273 OA
ENDROOT
BRANCH   2   5
ATOM      5  CA  ILE A   6      10.589  23.019  12.801  0.00  0.00    +0.149 C 
BRANCH   5   6
ATOM      6  C   ILE A   6       9.628  23.943  12.083  0.00  0.00    +0.241 C 
ATOM      7  N   GLY A   7       8.873  24.786  12.804  0.00  0.00    -0.295 N 
ATOM      8  H   GLY A   7       9.018  24.868  13.831  0.00  0.00    +0.150 HD
ATOM      9  O   ILE A   6       9.590  23.971  10.860  0.00  0.00    -0.273 OA
BRANCH   7  10
ATOM     10  CA  GLY A   7       7.847  25.589  12.143  0.00  0.00    +0.176 C 
BRANCH  10  11
ATOM     11  C   GLY A   7       8.189  27.046  12.004  0.00  0.00    +0.243 C 
ATOM     12  N   GLY A   8       9.384  27.374  12.401  0.00  0.00    -0.295 N 
ATOM     13  H   GLY A   8       9.999  26.633  12.794  0.00  0.00    +0.150 HD
ATOM     14  O   GLY A   7       7.413  27.871  11.540  0.00  0.00    -0.273 OA
BRANCH  12  15
ATOM     15  CA  GLY A   8       9.895  28.728  12.319  0.00  0.00    +0.176 C 
BRANCH  15  16
ATOM     16  C   GLY A   8      10.547  29.104  13.632  0.00  0.00    +0.243 C 
ATOM     17  O   GLY A   8      10.866  28.356  14.524  0.00  0.00    -0.273 OA
ATOM     18  N   PHE A   9      10.778  30.395  13.741  0.00  0.00    -0.297 N 
ATOM     19  H   PHE A   9      10.464  31.043  12.990  0.00  0.00    +0.150 HD
BRANCH  18  20
ATOM     20  CA  PHE A   9      11.470  30.919  14.905  0.00  0.00    +0.153 C 
BRANCH  20  21
ATOM     21  C   PHE A   9      10.536  31.483  15.951  0.00  0.00    +0.241 C 
ATOM     22  N   ILE A  10      11.090  31.498  17.139  0.00  0.00    -0.298 N 
ATOM     23  H   ILE A  10      12.000  31.017  17.286  0.00  0.00    +0.150 HD
ATOM     24  O   PHE A   9       9.410  31.927  15.712  0.00  0.00    -0.273 OA
BRANCH  22  25
ATOM     25  CA  ILE A  10      10.451  32.176  18.253  0.00  0.00    +0.137 C 
BRANCH  25  26
ATOM     26  C   ILE A  10      11.476  32.986  19.026  0.00  0.00    +0.227 C 
ATOM     27  O   ILE A  10      12.679  32.734  18.980  0.00  0.00    -0.286 OA
ENDBRANCH  25  26
BRANCH  25  28
ATOM     28  CB  ILE A  10       9.787  31.140  19.176  0.00  0.00    +0.026 C 
ATOM     29  CG2 ILE A  10       8.670  30.381  18.432  0.00  0.00    +0.002 C 
BRANCH  28  30
ATOM     30  CG1 ILE A  10      10.808  30.209  19.827  0.00  0.00    +0.002 C 
ATOM     31  CD1 ILE A  10      10.368  29.475  21.068  0.00  0.00    +0.000 C 
ENDBRANCH  28  30
ENDBRANCH  25  28
ENDBRANCH  22  25
ENDBRANCH  20  21
BRANCH  20  32
ATOM     32  CB  PHE A   9      12.374  32.075  14.466  0.00  0.00    +0.055 C 
BRANCH  32  33
ATOM     33  CG  PHE A   9      13.682  31.635  13.851  0.00  0.00    -0.020 A 
ATOM     34  CD2 PHE A   9      14.830  31.615  14.621  0.00  0.00    -0.004 A 
ATOM     35  CE2 PHE A   9      16.036  31.184  14.110  0.00  0.00    -0.000 A 
ATOM     36  CZ  PHE A   9      16.060  30.777  12.779  0.00  0.00    -0.000 A 
ATOM     37  CE1 PHE A   9      14.919  30.797  11.984  0.00  0.00    -0.000 A 
ATOM     38  CD1 PHE A   9      13.716  31.237  12.517  0.00  0.00    -0.004 A 
ENDBRANCH  32  33
ENDBRANCH  20  32
ENDBRANCH  18  20
ENDBRANCH  15  16
ENDBRANCH  12  15
ENDBRANCH  10  11
ENDBRANCH   7  10
ENDBRANCH   5   6
BRANCH   5  39
ATOM     39  CB  ILE A   6       9.929  21.670  13.162  0.00  0.00    +0.027 C 
ATOM     40  CG2 ILE A   6       8.596  21.917  13.818  0.00  0.00    +0.002 C 
BRANCH  39  41
ATOM     41  CG1 ILE A   6       9.938  20.774  11.935  0.00  0.00    +0.002 C 
ATOM     42  CD1 ILE A   6       9.975  19.304  12.258  0.00  0.00    +0.000 C 
ENDBRANCH  39  41
ENDBRANCH   5  39
ENDBRANCH   2   5
BRANCH   1  43
ATOM     43  CA  GLY A   5      12.567  25.154  15.167  0.00  0.00    +0.176 C 
BRANCH  43  46
ATOM     44  C   GLY A   4      14.223  26.802  15.208  0.00  0.00    +0.243 C 
ATOM     45  O   GLY A   4      15.062  25.909  15.299  0.00  0.00    -0.273 OA
ATOM     46  N   GLY A   5      12.914  26.563  15.128  0.00  0.00    -0.295 N 
ATOM     47  H   GLY A   5      12.204  27.319  15.045  0.00  0.00    +0.150 HD
BRANCH  44  48
ATOM     48  CA  GLY A   4      14.583  28.239  15.141  0.00  0.00    +0.176 C 
BRANCH  48  51
ATOM     49  C   ILE A   3      14.627  29.536  17.168  0.00  0.00    +0.241 C 
ATOM     50  O   ILE A   3      13.468  29.874  17.069  0.00  0.00    -0.273 OA
ATOM     51  N   GLY A   4      15.262  28.742  16.305  0.00  0.00    -0.295 N 
ATOM     52  H   GLY A   4      16.255  28.485  16.475  0.00  0.00    +0.150 HD
BRANCH  49  53
ATOM     53  CA  ILE A   3      15.490  30.000  18.329  0.00  0.00    +0.149 C 
BRANCH  53  55
ATOM     54  C   MET A   2      16.100  32.276  18.515  0.00  0.00    +0.241 C 
ATOM     55  N   ILE A   3      15.113  31.393  18.626  0.00  0.00    -0.297 N 
ATOM     56  H   ILE A   3      14.148  31.665  18.902  0.00  0.00    +0.150 HD
ATOM     57  O   MET A   2      17.266  32.002  18.281  0.00  0.00    -0.273 OA
BRANCH  54  58
ATOM     58  CA  MET A   2      15.772  33.742  18.659  0.00  0.00    +0.149 C 
BRANCH  58  61
ATOM     59  C   LYS A   1      16.346  34.687  20.836  0.00  0.00    +0.238 C 
ATOM     60  O   LYS A   1      15.197  34.694  21.258  0.00  0.00    -0.274 OA
ATOM     61  N   MET A   2      16.679  34.345  19.615  0.00  0.00    -0.297 N 
ATOM     62  H   MET A   2      17.659  34.518  19.312  0.00  0.00    +0.150 HD
BRANCH  59  63
ATOM     63  CA  LYS A   1      17.531  35.118  21.679  0.00  0.00    +0.145 C 
BRANCH  63  64
ATOM     64  N   LYS A   1      17.070  36.181  22.524  0.00  0.00    -0.238 NA
ATOM     65  H   LYS A   1      16.053  36.249  22.730  0.00  0.00    +0.142 HD
ENDBRANCH  63  64
BRANCH  63  66
ATOM     66  CB  LYS A   1      18.075  33.953  22.530  0.00  0.00    +0.026 C 
BRANCH  66  67
ATOM     67  CG  LYS A   1      18.762  32.891  21.668  0.00  0.00    -0.000 C 
BRANCH  67  68
ATOM     68  CD  LYS A   1      19.292  31.789  22.511  0.00  0.00    -0.024 C 
BRANCH  68  69
ATOM     69  CE  LYS A   1      19.980  30.613  21.866  0.00  0.00    -0.086 C 
BRANCH  69  70
ATOM     70  NZ  LYS A   1      21.257  30.929  21.178  0.00  0.00    +0.380 N 
ATOM     71  HZ1 LYS A   1      21.930  31.327  21.864  0.00  0.00    -0.089 HD
ATOM     72  HZ2 LYS A   1      21.653  30.059  20.768  0.00  0.00    -0.089 HD
ATOM     73  HZ3 LYS A   1      21.080  31.621  20.422  0.00  0.00    -0.089 HD
ENDBRANCH  69  70
ENDBRANCH  68  69
ENDBRANCH  67  68
ENDBRANCH  66  67
ENDBRANCH  63  66
ENDBRANCH  59  63
ENDBRANCH  58  61
BRANCH  58  74
ATOM     74  CB  MET A   2      15.876  34.425  17.276  0.00  0.00    +0.041 C 
BRANCH  74  75
ATOM     75  CG  MET A   2      15.482  35.899  17.328  0.00  0.00    +0.060 C 
BRANCH  75  76
ATOM     76  SD  MET A   2      13.677  36.034  17.359  0.00  0.00    -0.139 S 
ATOM     77  CE  MET A   2      13.321  35.388  15.719  0.00  0.00    +0.069 C 
ENDBRANCH  75  76
ENDBRANCH  74  75
ENDBRANCH  58  74
ENDBRANCH  54  58
ENDBRANCH  53  55
BRANCH  53  78
ATOM     78  CB  ILE A   3      15.406  29.107  19.559  0.00  0.00    +0.027 C 
ATOM     79  CG2 ILE A   3      16.409  29.547  20.649  0.00  0.00    +0.002 C 
BRANCH  78  80
ATOM     80  CG1 ILE A   3      13.996  28.996  20.113  0.00  0.00    +0.002 C 
ATOM     81  CD1 ILE A   3      13.948  28.131  21.350  0.00  0.00    +0.000 C 
ENDBRANCH  78  80
ENDBRANCH  53  78
ENDBRANCH  49  53
ENDBRANCH  48  51
ENDBRANCH  44  48
ENDBRANCH  43  46
ENDBRANCH   1  43
TORSDOF 36
REMARK  Name = ../refined-set-2016/3pwm/3pwm_pocket.pdb
REMARK  230 active torsions:
REMARK  status: ('A' for Active; 'I' for Inactive)
REMARK    1  A    between atoms: _1  and  _3
REMARK    2  A    between atoms: _3  and  _4
REMARK    3  A    between atoms: _3  and  _6
REMARK    4  A    between atoms: _6  and  _7
REMARK    5  A    between atoms: _7  and  _8
REMARK    6  A    between atoms: _8  and  _9
REMARK    7  A    between atoms: _18  and  _20
REMARK    8  A    between atoms: _20  and  _21
REMARK    9  A    between atoms: _20  and  _23
REMARK   10  A    between atoms: _23  and  _24
REMARK   11  A    between atoms: _27  and  _29
REMARK   12  A    between atoms: _29  and  _30
REMARK   13  A    between atoms: _29  and  _32
REMARK   14  A    between atoms: _32  and  _33
REMARK   15  A    between atoms: _36  and  _38
REMARK   16  A    between atoms: _38  and  _39
REMARK   17  A    between atoms: _38  and  _41
REMARK   18  A    between atoms: _41  and  _42
REMARK   19  A    between atoms: _45  and  _47
REMARK   20  A    between atoms: _47  and  _48
REMARK   21  A    between atoms: _47  and  _50
REMARK   22  A    between atoms: _50  and  _51
REMARK   23  A    between atoms: _54  and  _56
REMARK   24  A    between atoms: _56  and  _57
REMARK   25  A    between atoms: _59  and  _61
REMARK   26  A    between atoms: _61  and  _62
REMARK   27  A    between atoms: _65  and  _67
REMARK   28  A    between atoms: _67  and  _68
REMARK   29  A    between atoms: _67  and  _70
REMARK   30  A    between atoms: _70  and  _71
REMARK   31  A    between atoms: _74  and  _76
REMARK   32  A    between atoms: _76  and  _77
REMARK   33  A    between atoms: _76  and  _79
REMARK   34  A    between atoms: _79  and  _80
REMARK   35  A    between atoms: _83  and  _85
REMARK   36  A    between atoms: _85  and  _86
REMARK   37  A    between atoms: _85  and  _88
REMARK   38  A    between atoms: _88  and  _89
REMARK   39  A    between atoms: _92  and  _94
REMARK   40  A    between atoms: _94  and  _95
REMARK   41  A    between atoms: _94  and  _97
REMARK   42  A    between atoms: _100  and  _102
REMARK   43  A    between atoms: _102  and  _103
REMARK   44  A    between atoms: _102  and  _105
REMARK   45  A    between atoms: _105  and  _106
REMARK   46  A    between atoms: _106  and  _107
REMARK   47  A    between atoms: _107  and  _108
REMARK   48  A    between atoms: _108  and  _109
REMARK   49  A    between atoms: _113  and  _115
REMARK   50  A    between atoms: _115  and  _116
REMARK   51  A    between atoms: _115  and  _118
REMARK   52  A    between atoms: _118  and  _119
REMARK   53  A    between atoms: _119  and  _120
REMARK   54  A    between atoms: _122  and  _124
REMARK   55  A    between atoms: _124  and  _125
REMARK   56  A    between atoms: _124  and  _127
REMARK   57  A    between atoms: _127  and  _128
REMARK   58  A    between atoms: _131  and  _133
REMARK   59  A    between atoms: _133  and  _134
REMARK   60  A    between atoms: _136  and  _138
REMARK   61  A    between atoms: _138  and  _139
REMARK   62  A    between atoms: _141  and  _143
REMARK   63  A    between atoms: _143  and  _144
REMARK   64  A    between atoms: _143  and  _146
REMARK   65  A    between atoms: _146  and  _147
REMARK   66  A    between atoms: _150  and  _152
REMARK   67  A    between atoms: _152  and  _153
REMARK   68  A    between atoms: _155  and  _157
REMARK   69  A    between atoms: _157  and  _158
REMARK   70  A    between atoms: _160  and  _162
REMARK   71  A    between atoms: _162  and  _163
REMARK   72  A    between atoms: _162  and  _165
REMARK   73  A    between atoms: _165  and  _166
REMARK   74  A    between atoms: _172  and  _174
REMARK   75  A    between atoms: _174  and  _175
REMARK   76  A    between atoms: _174  and  _177
REMARK   77  A    between atoms: _177  and  _178
REMARK   78  A    between atoms: _181  and  _183
REMARK   79  A    between atoms: _183  and  _184
REMARK   80  A    between atoms: _183  and  _186
REMARK   81  A    between atoms: _189  and  _191
REMARK   82  A    between atoms: _191  and  _192
REMARK   83  A    between atoms: _191  and  _194
REMARK   84  A    between atoms: _197  and  _199
REMARK   85  A    between atoms: _199  and  _200
REMARK   86  A    between atoms: _199  and  _202
REMARK   87  A    between atoms: _202  and  _203
REMARK   88  A    between atoms: _207  and  _208
REMARK   89  A    between atoms: _213  and  _215
REMARK   90  A    between atoms: _215  and  _216
REMARK   91  A    between atoms: _215  and  _218
REMARK   92  A    between atoms: _221  and  _223
REMARK   93  A    between atoms: _223  and  _224
REMARK   94  A    between atoms: _223  and  _226
REMARK   95  A    between atoms: _226  and  _227
REMARK   96  A    between atoms: _232  and  _234
REMARK   97  A    between atoms: _234  and  _235
REMARK   98  A    between atoms: _234  and  _237
REMARK   99  A    between atoms: _237  and  _238
REMARK  100  A    between atoms: _241  and  _243
REMARK  101  A    between atoms: _243  and  _244
REMARK  102  A    between atoms: _243  and  _246
REMARK  103  A    between atoms: _246  and  _247
REMARK  104  A    between atoms: _250  and  _252
REMARK  105  A    between atoms: _252  and  _253
REMARK  106  A    between atoms: _255  and  _257
REMARK  107  A    between atoms: _257  and  _258
REMARK  108  A    between atoms: _257  and  _260
REMARK  109  A    between atoms: _260  and  _261
REMARK  110  A    between atoms: _261  and  _262
REMARK  111  A    between atoms: _262  and  _263
REMARK  112  A    between atoms: _272  and  _274
REMARK  113  A    between atoms: _274  and  _275
REMARK  114  A    between atoms: _274  and  _277
REMARK  115  A    between atoms: _277  and  _278
REMARK  116  A    between atoms: _283  and  _285
REMARK  117  A    between atoms: _285  and  _286
REMARK  118  A    between atoms: _285  and  _288
REMARK  119  A    between atoms: _288  and  _289
REMARK  120  A    between atoms: _289  and  _290
REMARK  121  A    between atoms: _290  and  _291
REMARK  122  A    between atoms: _300  and  _302
REMARK  123  A    between atoms: _302  and  _303
REMARK  124  A    between atoms: _302  and  _305
REMARK  125  A    between atoms: _305  and  _306
REMARK  126  A    between atoms: _309  and  _311
REMARK  127  A    between atoms: _311  and  _312
REMARK  128  A    between atoms: _311  and  _314
REMARK  129  A    between atoms: _314  and  _315
REMARK  130  A    between atoms: _318  and  _320
REMARK  131  A    between atoms: _320  and  _321
REMARK  132  A    between atoms: _320  and  _323
REMARK  133  A    between atoms: _323  and  _324
REMARK  134  A    between atoms: _327  and  _329
REMARK  135  A    between atoms: _329  and  _330
REMARK  136  A    between atoms: _329  and  _332
REMARK  137  A    between atoms: _332  and  _333
REMARK  138  A    between atoms: _336  and  _338
REMARK  139  A    between atoms: _338  and  _339
REMARK  140  A    between atoms: _341  and  _343
REMARK  141  A    between atoms: _343  and  _344
REMARK  142  A    between atoms: _347  and  _349
REMARK  143  A    between atoms: _349  and  _350
REMARK  144  A    between atoms: _349  and  _352
REMARK  145  A    between atoms: _352  and  _353
REMARK  146  A    between atoms: _356  and  _358
REMARK  147  A    between atoms: _358  and  _359
REMARK  148  A    between atoms: _358  and  _361
REMARK  149  A    between atoms: _361  and  _362
REMARK  150  A    between atoms: _365  and  _367
REMARK  151  A    between atoms: _367  and  _368
REMARK  152  A    between atoms: _367  and  _370
REMARK  153  A    between atoms: _370  and  _371
REMARK  154  A    between atoms: _374  and  _376
REMARK  155  A    between atoms: _376  and  _377
REMARK  156  A    between atoms: _376  and  _379
REMARK  157  A    between atoms: _382  and  _384
REMARK  158  A    between atoms: _384  and  _385
REMARK  159  A    between atoms: _384  and  _387
REMARK  160  A    between atoms: _387  and  _388
REMARK  161  A    between atoms: _388  and  _389
REMARK  162  A    between atoms: _389  and  _390
REMARK  163  A    between atoms: _390  and  _391
REMARK  164  A    between atoms: _395  and  _397
REMARK  165  A    between atoms: _397  and  _398
REMARK  166  A    between atoms: _397  and  _400
REMARK  167  A    between atoms: _400  and  _401
REMARK  168  A    between atoms: _401  and  _402
REMARK  169  A    between atoms: _404  and  _406
REMARK  170  A    between atoms: _406  and  _407
REMARK  171  A    between atoms: _406  and  _409
REMARK  172  A    between atoms: _409  and  _410
REMARK  173  A    between atoms: _413  and  _415
REMARK  174  A    between atoms: _415  and  _416
REMARK  175  A    between atoms: _418  and  _420
REMARK  176  A    between atoms: _420  and  _421
REMARK  177  A    between atoms: _423  and  _425
REMARK  178  A    between atoms: _425  and  _426
REMARK  179  A    between atoms: _425  and  _428
REMARK  180  A    between atoms: _428  and  _429
REMARK  181  A    between atoms: _432  and  _434
REMARK  182  A    between atoms: _434  and  _435
REMARK  183  A    between atoms: _437  and  _439
REMARK  184  A    between atoms: _439  and  _440
REMARK  185  A    between atoms: _442  and  _444
REMARK  186  A    between atoms: _444  and  _445
REMARK  187  A    between atoms: _444  and  _447
REMARK  188  A    between atoms: _447  and  _448
REMARK  189  A    between atoms: _454  and  _456
REMARK  190  A    between atoms: _456  and  _457
REMARK  191  A    between atoms: _456  and  _459
REMARK  192  A    between atoms: _459  and  _460
REMARK  193  A    between atoms: _463  and  _465
REMARK  194  A    between atoms: _465  and  _466
REMARK  195  A    between atoms: _465  and  _468
REMARK  196  A    between atoms: _471  and  _473
REMARK  197  A    between atoms: _473  and  _474
REMARK  198  A    between atoms: _473  and  _476
REMARK  199  A    between atoms: _479  and  _481
REMARK  200  A    between atoms: _481  and  _482
REMARK  201  A    between atoms: _481  and  _484
REMARK  202  A    between atoms: _484  and  _485
REMARK  203  A    between atoms: _489  and  _490
REMARK  204  A    between atoms: _495  and  _497
REMARK  205  A    between atoms: _497  and  _498
REMARK  206  A    between atoms: _497  and  _500
REMARK  207  A    between atoms: _503  and  _505
REMARK  208  A    between atoms: _505  and  _506
REMARK  209  A    between atoms: _505  and  _508
REMARK  210  A    between atoms: _508  and  _509
REMARK  211  A    between atoms: _514  and  _516
REMARK  212  A    between atoms: _516  and  _517
REMARK  213  A    between atoms: _516  and  _519
REMARK  214  A    between atoms: _519  and  _520
REMARK  215  A    between atoms: _523  and  _525
REMARK  216  A    between atoms: _525  and  _526
REMARK  217  A    between atoms: _525  and  _528
REMARK  218  A    between atoms: _528  and  _529
REMARK  219  A    between atoms: _532  and  _534
REMARK  220  A    between atoms: _534  and  _535
REMARK  221  A    between atoms: _537  and  _539
REMARK  222  A    between atoms: _539  and  _540
REMARK  223  A    between atoms: _539  and  _542
REMARK  224  A    between atoms: _542  and  _543
REMARK  225  A    between atoms: _543  and  _544
REMARK  226  A    between atoms: _544  and  _545
REMARK  227  A    between atoms: _554  and  _556
REMARK  228  A    between atoms: _556  and  _557
REMARK  229  A    between atoms: _556  and  _559
REMARK  230  A    between atoms: _559  and  _560
REMARK                            x       y       z     vdW  Elec       q    Type
REMARK                         _______ _______ _______ _____ _____    ______ ____
ROOT
ATOM      1  CA  VAL A   1      12.812  33.496  24.078  0.00  0.00    +0.133 C 
ENDROOT
BRANCH   1   2
ATOM      2  CB  VAL A   1      13.471  32.094  24.061  0.00  0.00    +0.023 C 
ATOM      3  CG2 VAL A   1      14.886  32.141  23.483  0.00  0.00    +0.002 C 
ATOM      4  CG1 VAL A   1      12.626  31.108  23.288  0.00  0.00    +0.002 C 
ENDBRANCH   1   2
BRANCH   1   5
ATOM      5  N   VAL A   1      12.751  34.083  22.759  0.00  0.00    -0.239 NA
ATOM      6  H   VAL A   1      13.608  34.496  22.339  0.00  0.00    +0.142 HD
ENDBRANCH   1   5
BRANCH   1   7
ATOM      7  C   VAL A   1      13.589  34.440  24.984  0.00  0.00    +0.224 C 
ATOM      8  O   VAL A   1      14.262  35.353  24.480  0.00  0.00    -0.287 OA
ENDBRANCH   1   7
TORSDOF 3
REMARK  Name = ../refined-set-2016/3pwm/3pwm_pocket.pdb
REMARK  230 active torsions:
REMARK  status: ('A' for Active; 'I' for Inactive)
REMARK    1  A    between atoms: _1  and  _3
REMARK    2  A    between atoms: _3  and  _4
REMARK    3  A    between atoms: _3  and  _6
REMARK    4  A    between atoms: _6  and  _7
REMARK    5  A    between atoms: _7  and  _8
REMARK    6  A    between atoms: _8  and  _9
REMARK    7  A    between atoms: _18  and  _20
REMARK    8  A    between atoms: _20  and  _21
REMARK    9  A    between atoms: _20  and  _23
REMARK   10  A    between atoms: _23  and  _24
REMARK   11  A    between atoms: _27  and  _29
REMARK   12  A    between atoms: _29  and  _30
REMARK   13  A    between atoms: _29  and  _32
REMARK   14  A    between atoms: _32  and  _33
REMARK   15  A    between atoms: _36  and  _38
REMARK   16  A    between atoms: _38  and  _39
REMARK   17  A    between atoms: _38  and  _41
REMARK   18  A    between atoms: _41  and  _42
REMARK   19  A    between atoms: _45  and  _47
REMARK   20  A    between atoms: _47  and  _48
REMARK   21  A    between atoms: _47  and  _50
REMARK   22  A    between atoms: _50  and  _51
REMARK   23  A    between atoms: _54  and  _56
REMARK   24  A    between atoms: _56  and  _57
REMARK   25  A    between atoms: _59  and  _61
REMARK   26  A    between atoms: _61  and  _62
REMARK   27  A    between atoms: _65  and  _67
REMARK   28  A    between atoms: _67  and  _68
REMARK   29  A    between atoms: _67  and  _70
REMARK   30  A    between atoms: _70  and  _71
REMARK   31  A    between atoms: _74  and  _76
REMARK   32  A    between atoms: _76  and  _77
REMARK   33  A    between atoms: _76  and  _79
REMARK   34  A    between atoms: _79  and  _80
REMARK   35  A    between atoms: _83  and  _85
REMARK   36  A    between atoms: _85  and  _86
REMARK   37  A    between atoms: _85  and  _88
REMARK   38  A    between atoms: _88  and  _89
REMARK   39  A    between atoms: _92  and  _94
REMARK   40  A    between atoms: _94  and  _95
REMARK   41  A    between atoms: _94  and  _97
REMARK   42  A    between atoms: _100  and  _102
REMARK   43  A    between atoms: _102  and  _103
REMARK   44  A    between atoms: _102  and  _105
REMARK   45  A    between atoms: _105  and  _106
REMARK   46  A    between atoms: _106  and  _107
REMARK   47  A    between atoms: _107  and  _108
REMARK   48  A    between atoms: _108  and  _109
REMARK   49  A    between atoms: _113  and  _115
REMARK   50  A    between atoms: _115  and  _116
REMARK   51  A    between atoms: _115  and  _118
REMARK   52  A    between atoms: _118  and  _119
REMARK   53  A    between atoms: _119  and  _120
REMARK   54  A    between atoms: _122  and  _124
REMARK   55  A    between atoms: _124  and  _125
REMARK   56  A    between atoms: _124  and  _127
REMARK   57  A    between atoms: _127  and  _128
REMARK   58  A    between atoms: _131  and  _133
REMARK   59  A    between atoms: _133  and  _134
REMARK   60  A    between atoms: _136  and  _138
REMARK   61  A    between atoms: _138  and  _139
REMARK   62  A    between atoms: _141  and  _143
REMARK   63  A    between atoms: _143  and  _144
REMARK   64  A    between atoms: _143  and  _146
REMARK   65  A    between atoms: _146  and  _147
REMARK   66  A    between atoms: _150  and  _152
REMARK   67  A    between atoms: _152  and  _153
REMARK   68  A    between atoms: _155  and  _157
REMARK   69  A    between atoms: _157  and  _158
REMARK   70  A    between atoms: _160  and  _162
REMARK   71  A    between atoms: _162  and  _163
REMARK   72  A    between atoms: _162  and  _165
REMARK   73  A    between atoms: _165  and  _166
REMARK   74  A    between atoms: _172  and  _174
REMARK   75  A    between atoms: _174  and  _175
REMARK   76  A    between atoms: _174  and  _177
REMARK   77  A    between atoms: _177  and  _178
REMARK   78  A    between atoms: _181  and  _183
REMARK   79  A    between atoms: _183  and  _184
REMARK   80  A    between atoms: _183  and  _186
REMARK   81  A    between atoms: _189  and  _191
REMARK   82  A    between atoms: _191  and  _192
REMARK   83  A    between atoms: _191  and  _194
REMARK   84  A    between atoms: _197  and  _199
REMARK   85  A    between atoms: _199  and  _200
REMARK   86  A    between atoms: _199  and  _202
REMARK   87  A    between atoms: _202  and  _203
REMARK   88  A    between atoms: _207  and  _208
REMARK   89  A    between atoms: _213  and  _215
REMARK   90  A    between atoms: _215  and  _216
REMARK   91  A    between atoms: _215  and  _218
REMARK   92  A    between atoms: _221  and  _223
REMARK   93  A    between atoms: _223  and  _224
REMARK   94  A    between atoms: _223  and  _226
REMARK   95  A    between atoms: _226  and  _227
REMARK   96  A    between atoms: _232  and  _234
REMARK   97  A    between atoms: _234  and  _235
REMARK   98  A    between atoms: _234  and  _237
REMARK   99  A    between atoms: _237  and  _238
REMARK  100  A    between atoms: _241  and  _243
REMARK  101  A    between atoms: _243  and  _244
REMARK  102  A    between atoms: _243  and  _246
REMARK  103  A    between atoms: _246  and  _247
REMARK  104  A    between atoms: _250  and  _252
REMARK  105  A    between atoms: _252  and  _253
REMARK  106  A    between atoms: _255  and  _257
REMARK  107  A    between atoms: _257  and  _258
REMARK  108  A    between atoms: _257  and  _260
REMARK  109  A    between atoms: _260  and  _261
REMARK  110  A    between atoms: _261  and  _262
REMARK  111  A    between atoms: _262  and  _263
REMARK  112  A    between atoms: _272  and  _274
REMARK  113  A    between atoms: _274  and  _275
REMARK  114  A    between atoms: _274  and  _277
REMARK  115  A    between atoms: _277  and  _278
REMARK  116  A    between atoms: _283  and  _285
REMARK  117  A    between atoms: _285  and  _286
REMARK  118  A    between atoms: _285  and  _288
REMARK  119  A    between atoms: _288  and  _289
REMARK  120  A    between atoms: _289  and  _290
REMARK  121  A    between atoms: _290  and  _291
REMARK  122  A    between atoms: _300  and  _302
REMARK  123  A    between atoms: _302  and  _303
REMARK  124  A    between atoms: _302  and  _305
REMARK  125  A    between atoms: _305  and  _306
REMARK  126  A    between atoms: _309  and  _311
REMARK  127  A    between atoms: _311  and  _312
REMARK  128  A    between atoms: _311  and  _314
REMARK  129  A    between atoms: _314  and  _315
REMARK  130  A    between atoms: _318  and  _320
REMARK  131  A    between atoms: _320  and  _321
REMARK  132  A    between atoms: _320  and  _323
REMARK  133  A    between atoms: _323  and  _324
REMARK  134  A    between atoms: _327  and  _329
REMARK  135  A    between atoms: _329  and  _330
REMARK  136  A    between atoms: _329  and  _332
REMARK  137  A    between atoms: _332  and  _333
REMARK  138  A    between atoms: _336  and  _338
REMARK  139  A    between atoms: _338  and  _339
REMARK  140  A    between atoms: _341  and  _343
REMARK  141  A    between atoms: _343  and  _344
REMARK  142  A    between atoms: _347  and  _349
REMARK  143  A    between atoms: _349  and  _350
REMARK  144  A    between atoms: _349  and  _352
REMARK  145  A    between atoms: _352  and  _353
REMARK  146  A    between atoms: _356  and  _358
REMARK  147  A    between atoms: _358  and  _359
REMARK  148  A    between atoms: _358  and  _361
REMARK  149  A    between atoms: _361  and  _362
REMARK  150  A    between atoms: _365  and  _367
REMARK  151  A    between atoms: _367  and  _368
REMARK  152  A    between atoms: _367  and  _370
REMARK  153  A    between atoms: _370  and  _371
REMARK  154  A    between atoms: _374  and  _376
REMARK  155  A    between atoms: _376  and  _377
REMARK  156  A    between atoms: _376  and  _379
REMARK  157  A    between atoms: _382  and  _384
REMARK  158  A    between atoms: _384  and  _385
REMARK  159  A    between atoms: _384  and  _387
REMARK  160  A    between atoms: _387  and  _388
REMARK  161  A    between atoms: _388  and  _389
REMARK  162  A    between atoms: _389  and  _390
REMARK  163  A    between atoms: _390  and  _391
REMARK  164  A    between atoms: _395  and  _397
REMARK  165  A    between atoms: _397  and  _398
REMARK  166  A    between atoms: _397  and  _400
REMARK  167  A    between atoms: _400  and  _401
REMARK  168  A    between atoms: _401  and  _402
REMARK  169  A    between atoms: _404  and  _406
REMARK  170  A    between atoms: _406  and  _407
REMARK  171  A    between atoms: _406  and  _409
REMARK  172  A    between atoms: _409  and  _410
REMARK  173  A    between atoms: _413  and  _415
REMARK  174  A    between atoms: _415  and  _416
REMARK  175  A    between atoms: _418  and  _420
REMARK  176  A    between atoms: _420  and  _421
REMARK  177  A    between atoms: _423  and  _425
REMARK  178  A    between atoms: _425  and  _426
REMARK  179  A    between atoms: _425  and  _428
REMARK  180  A    between atoms: _428  and  _429
REMARK  181  A    between atoms: _432  and  _434
REMARK  182  A    between atoms: _434  and  _435
REMARK  183  A    between atoms: _437  and  _439
REMARK  184  A    between atoms: _439  and  _440
REMARK  185  A    between atoms: _442  and  _444
REMARK  186  A    between atoms: _444  and  _445
REMARK  187  A    between atoms: _444  and  _447
REMARK  188  A    between atoms: _447  and  _448
REMARK  189  A    between atoms: _454  and  _456
REMARK  190  A    between atoms: _456  and  _457
REMARK  191  A    between atoms: _456  and  _459
REMARK  192  A    between atoms: _459  and  _460
REMARK  193  A    between atoms: _463  and  _465
REMARK  194  A    between atoms: _465  and  _466
REMARK  195  A    between atoms: _465  and  _468
REMARK  196  A    between atoms: _471  and  _473
REMARK  197  A    between atoms: _473  and  _474
REMARK  198  A    between atoms: _473  and  _476
REMARK  199  A    between atoms: _479  and  _481
REMARK  200  A    between atoms: _481  and  _482
REMARK  201  A    between atoms: _481  and  _484
REMARK  202  A    between atoms: _484  and  _485
REMARK  203  A    between atoms: _489  and  _490
REMARK  204  A    between atoms: _495  and  _497
REMARK  205  A    between atoms: _497  and  _498
REMARK  206  A    between atoms: _497  and  _500
REMARK  207  A    between atoms: _503  and  _505
REMARK  208  A    between atoms: _505  and  _506
REMARK  209  A    between atoms: _505  and  _508
REMARK  210  A    between atoms: _508  and  _509
REMARK  211  A    between atoms: _514  and  _516
REMARK  212  A    between atoms: _516  and  _517
REMARK  213  A    between atoms: _516  and  _519
REMARK  214  A    between atoms: _519  and  _520
REMARK  215  A    between atoms: _523  and  _525
REMARK  216  A    between atoms: _525  and  _526
REMARK  217  A    between atoms: _525  and  _528
REMARK  218  A    between atoms: _528  and  _529
REMARK  219  A    between atoms: _532  and  _534
REMARK  220  A    between atoms: _534  and  _535
REMARK  221  A    between atoms: _537  and  _539
REMARK  222  A    between atoms: _539  and  _540
REMARK  223  A    between atoms: _539  and  _542
REMARK  224  A    between atoms: _542  and  _543
REMARK  225  A    between atoms: _543  and  _544
REMARK  226  A    between atoms: _544  and  _545
REMARK  227  A    between atoms: _554  and  _556
REMARK  228  A    between atoms: _556  and  _557
REMARK  229  A    between atoms: _556  and  _559
REMARK  230  A    between atoms: _559  and  _560
REMARK                            x       y       z     vdW  Elec       q    Type
REMARK                         _______ _______ _______ _____ _____    ______ ____
ROOT
ATOM      1  CA  VAL A   1      15.781  29.976  27.726  0.00  0.00    +0.133 C 
ENDROOT
BRANCH   1   2
ATOM      2  CB  VAL A   1      16.123  30.158  26.232  0.00  0.00    +0.023 C 
ATOM      3  CG2 VAL A   1      17.644  30.257  26.053  0.00  0.00    +0.002 C 
ATOM      4  CG1 VAL A   1      15.522  29.045  25.393  0.00  0.00    +0.002 C 
ENDBRANCH   1   2
BRANCH   1   5
ATOM      5  N   VAL A   1      16.606  28.957  28.375  0.00  0.00    -0.239 NA
ATOM      6  H   VAL A   1      16.651  27.993  27.987  0.00  0.00    +0.142 HD
ENDBRANCH   1   5
BRANCH   1   7
ATOM      7  C   VAL A   1      14.313  29.625  27.954  0.00  0.00    +0.224 C 
ATOM      8  O   VAL A   1      13.907  28.459  28.010  0.00  0.00    -0.287 OA
ENDBRANCH   1   7
TORSDOF 3
REMARK  Name = ../refined-set-2016/3pwm/3pwm_pocket.pdb
REMARK  230 active torsions:
REMARK  status: ('A' for Active; 'I' for Inactive)
REMARK    1  A    between atoms: _1  and  _3
REMARK    2  A    between atoms: _3  and  _4
REMARK    3  A    between atoms: _3  and  _6
REMARK    4  A    between atoms: _6  and  _7
REMARK    5  A    between atoms: _7  and  _8
REMARK    6  A    between atoms: _8  and  _9
REMARK    7  A    between atoms: _18  and  _20
REMARK    8  A    between atoms: _20  and  _21
REMARK    9  A    between atoms: _20  and  _23
REMARK   10  A    between atoms: _23  and  _24
REMARK   11  A    between atoms: _27  and  _29
REMARK   12  A    between atoms: _29  and  _30
REMARK   13  A    between atoms: _29  and  _32
REMARK   14  A    between atoms: _32  and  _33
REMARK   15  A    between atoms: _36  and  _38
REMARK   16  A    between atoms: _38  and  _39
REMARK   17  A    between atoms: _38  and  _41
REMARK   18  A    between atoms: _41  and  _42
REMARK   19  A    between atoms: _45  and  _47
REMARK   20  A    between atoms: _47  and  _48
REMARK   21  A    between atoms: _47  and  _50
REMARK   22  A    between atoms: _50  and  _51
REMARK   23  A    between atoms: _54  and  _56
REMARK   24  A    between atoms: _56  and  _57
REMARK   25  A    between atoms: _59  and  _61
REMARK   26  A    between atoms: _61  and  _62
REMARK   27  A    between atoms: _65  and  _67
REMARK   28  A    between atoms: _67  and  _68
REMARK   29  A    between atoms: _67  and  _70
REMARK   30  A    between atoms: _70  and  _71
REMARK   31  A    between atoms: _74  and  _76
REMARK   32  A    between atoms: _76  and  _77
REMARK   33  A    between atoms: _76  and  _79
REMARK   34  A    between atoms: _79  and  _80
REMARK   35  A    between atoms: _83  and  _85
REMARK   36  A    between atoms: _85  and  _86
REMARK   37  A    between atoms: _85  and  _88
REMARK   38  A    between atoms: _88  and  _89
REMARK   39  A    between atoms: _92  and  _94
REMARK   40  A    between atoms: _94  and  _95
REMARK   41  A    between atoms: _94  and  _97
REMARK   42  A    between atoms: _100  and  _102
REMARK   43  A    between atoms: _102  and  _103
REMARK   44  A    between atoms: _102  and  _105
REMARK   45  A    between atoms: _105  and  _106
REMARK   46  A    between atoms: _106  and  _107
REMARK   47  A    between atoms: _107  and  _108
REMARK   48  A    between atoms: _108  and  _109
REMARK   49  A    between atoms: _113  and  _115
REMARK   50  A    between atoms: _115  and  _116
REMARK   51  A    between atoms: _115  and  _118
REMARK   52  A    between atoms: _118  and  _119
REMARK   53  A    between atoms: _119  and  _120
REMARK   54  A    between atoms: _122  and  _124
REMARK   55  A    between atoms: _124  and  _125
REMARK   56  A    between atoms: _124  and  _127
REMARK   57  A    between atoms: _127  and  _128
REMARK   58  A    between atoms: _131  and  _133
REMARK   59  A    between atoms: _133  and  _134
REMARK   60  A    between atoms: _136  and  _138
REMARK   61  A    between atoms: _138  and  _139
REMARK   62  A    between atoms: _141  and  _143
REMARK   63  A    between atoms: _143  and  _144
REMARK   64  A    between atoms: _143  and  _146
REMARK   65  A    between atoms: _146  and  _147
REMARK   66  A    between atoms: _150  and  _152
REMARK   67  A    between atoms: _152  and  _153
REMARK   68  A    between atoms: _155  and  _157
REMARK   69  A    between atoms: _157  and  _158
REMARK   70  A    between atoms: _160  and  _162
REMARK   71  A    between atoms: _162  and  _163
REMARK   72  A    between atoms: _162  and  _165
REMARK   73  A    between atoms: _165  and  _166
REMARK   74  A    between atoms: _172  and  _174
REMARK   75  A    between atoms: _174  and  _175
REMARK   76  A    between atoms: _174  and  _177
REMARK   77  A    between atoms: _177  and  _178
REMARK   78  A    between atoms: _181  and  _183
REMARK   79  A    between atoms: _183  and  _184
REMARK   80  A    between atoms: _183  and  _186
REMARK   81  A    between atoms: _189  and  _191
REMARK   82  A    between atoms: _191  and  _192
REMARK   83  A    between atoms: _191  and  _194
REMARK   84  A    between atoms: _197  and  _199
REMARK   85  A    between atoms: _199  and  _200
REMARK   86  A    between atoms: _199  and  _202
REMARK   87  A    between atoms: _202  and  _203
REMARK   88  A    between atoms: _207  and  _208
REMARK   89  A    between atoms: _213  and  _215
REMARK   90  A    between atoms: _215  and  _216
REMARK   91  A    between atoms: _215  and  _218
REMARK   92  A    between atoms: _221  and  _223
REMARK   93  A    between atoms: _223  and  _224
REMARK   94  A    between atoms: _223  and  _226
REMARK   95  A    between atoms: _226  and  _227
REMARK   96  A    between atoms: _232  and  _234
REMARK   97  A    between atoms: _234  and  _235
REMARK   98  A    between atoms: _234  and  _237
REMARK   99  A    between atoms: _237  and  _238
REMARK  100  A    between atoms: _241  and  _243
REMARK  101  A    between atoms: _243  and  _244
REMARK  102  A    between atoms: _243  and  _246
REMARK  103  A    between atoms: _246  and  _247
REMARK  104  A    between atoms: _250  and  _252
REMARK  105  A    between atoms: _252  and  _253
REMARK  106  A    between atoms: _255  and  _257
REMARK  107  A    between atoms: _257  and  _258
REMARK  108  A    between atoms: _257  and  _260
REMARK  109  A    between atoms: _260  and  _261
REMARK  110  A    between atoms: _261  and  _262
REMARK  111  A    between atoms: _262  and  _263
REMARK  112  A    between atoms: _272  and  _274
REMARK  113  A    between atoms: _274  and  _275
REMARK  114  A    between atoms: _274  and  _277
REMARK  115  A    between atoms: _277  and  _278
REMARK  116  A    between atoms: _283  and  _285
REMARK  117  A    between atoms: _285  and  _286
REMARK  118  A    between atoms: _285  and  _288
REMARK  119  A    between atoms: _288  and  _289
REMARK  120  A    between atoms: _289  and  _290
REMARK  121  A    between atoms: _290  and  _291
REMARK  122  A    between atoms: _300  and  _302
REMARK  123  A    between atoms: _302  and  _303
REMARK  124  A    between atoms: _302  and  _305
REMARK  125  A    between atoms: _305  and  _306
REMARK  126  A    between atoms: _309  and  _311
REMARK  127  A    between atoms: _311  and  _312
REMARK  128  A    between atoms: _311  and  _314
REMARK  129  A    between atoms: _314  and  _315
REMARK  130  A    between atoms: _318  and  _320
REMARK  131  A    between atoms: _320  and  _321
REMARK  132  A    between atoms: _320  and  _323
REMARK  133  A    between atoms: _323  and  _324
REMARK  134  A    between atoms: _327  and  _329
REMARK  135  A    between atoms: _329  and  _330
REMARK  136  A    between atoms: _329  and  _332
REMARK  137  A    between atoms: _332  and  _333
REMARK  138  A    between atoms: _336  and  _338
REMARK  139  A    between atoms: _338  and  _339
REMARK  140  A    between atoms: _341  and  _343
REMARK  141  A    between atoms: _343  and  _344
REMARK  142  A    between atoms: _347  and  _349
REMARK  143  A    between atoms: _349  and  _350
REMARK  144  A    between atoms: _349  and  _352
REMARK  145  A    between atoms: _352  and  _353
REMARK  146  A    between atoms: _356  and  _358
REMARK  147  A    between atoms: _358  and  _359
REMARK  148  A    between atoms: _358  and  _361
REMARK  149  A    between atoms: _361  and  _362
REMARK  150  A    between atoms: _365  and  _367
REMARK  151  A    between atoms: _367  and  _368
REMARK  152  A    between atoms: _367  and  _370
REMARK  153  A    between atoms: _370  and  _371
REMARK  154  A    between atoms: _374  and  _376
REMARK  155  A    between atoms: _376  and  _377
REMARK  156  A    between atoms: _376  and  _379
REMARK  157  A    between atoms: _382  and  _384
REMARK  158  A    between atoms: _384  and  _385
REMARK  159  A    between atoms: _384  and  _387
REMARK  160  A    between atoms: _387  and  _388
REMARK  161  A    between atoms: _388  and  _389
REMARK  162  A    between atoms: _389  and  _390
REMARK  163  A    between atoms: _390  and  _391
REMARK  164  A    between atoms: _395  and  _397
REMARK  165  A    between atoms: _397  and  _398
REMARK  166  A    between atoms: _397  and  _400
REMARK  167  A    between atoms: _400  and  _401
REMARK  168  A    between atoms: _401  and  _402
REMARK  169  A    between atoms: _404  and  _406
REMARK  170  A    between atoms: _406  and  _407
REMARK  171  A    between atoms: _406  and  _409
REMARK  172  A    between atoms: _409  and  _410
REMARK  173  A    between atoms: _413  and  _415
REMARK  174  A    between atoms: _415  and  _416
REMARK  175  A    between atoms: _418  and  _420
REMARK  176  A    between atoms: _420  and  _421
REMARK  177  A    between atoms: _423  and  _425
REMARK  178  A    between atoms: _425  and  _426
REMARK  179  A    between atoms: _425  and  _428
REMARK  180  A    between atoms: _428  and  _429
REMARK  181  A    between atoms: _432  and  _434
REMARK  182  A    between atoms: _434  and  _435
REMARK  183  A    between atoms: _437  and  _439
REMARK  184  A    between atoms: _439  and  _440
REMARK  185  A    between atoms: _442  and  _444
REMARK  186  A    between atoms: _444  and  _445
REMARK  187  A    between atoms: _444  and  _447
REMARK  188  A    between atoms: _447  and  _448
REMARK  189  A    between atoms: _454  and  _456
REMARK  190  A    between atoms: _456  and  _457
REMARK  191  A    between atoms: _456  and  _459
REMARK  192  A    between atoms: _459  and  _460
REMARK  193  A    between atoms: _463  and  _465
REMARK  194  A    between atoms: _465  and  _466
REMARK  195  A    between atoms: _465  and  _468
REMARK  196  A    between atoms: _471  and  _473
REMARK  197  A    between atoms: _473  and  _474
REMARK  198  A    between atoms: _473  and  _476
REMARK  199  A    between atoms: _479  and  _481
REMARK  200  A    between atoms: _481  and  _482
REMARK  201  A    between atoms: _481  and  _484
REMARK  202  A    between atoms: _484  and  _485
REMARK  203  A    between atoms: _489  and  _490
REMARK  204  A    between atoms: _495  and  _497
REMARK  205  A    between atoms: _497  and  _498
REMARK  206  A    between atoms: _497  and  _500
REMARK  207  A    between atoms: _503  and  _505
REMARK  208  A    between atoms: _505  and  _506
REMARK  209  A    between atoms: _505  and  _508
REMARK  210  A    between atoms: _508  and  _509
REMARK  211  A    between atoms: _514  and  _516
REMARK  212  A    between atoms: _516  and  _517
REMARK  213  A    between atoms: _516  and  _519
REMARK  214  A    between atoms: _519  and  _520
REMARK  215  A    between atoms: _523  and  _525
REMARK  216  A    between atoms: _525  and  _526
REMARK  217  A    between atoms: _525  and  _528
REMARK  218  A    between atoms: _528  and  _529
REMARK  219  A    between atoms: _532  and  _534
REMARK  220  A    between atoms: _534  and  _535
REMARK  221  A    between atoms: _537  and  _539
REMARK  222  A    between atoms: _539  and  _540
REMARK  223  A    between atoms: _539  and  _542
REMARK  224  A    between atoms: _542  and  _543
REMARK  225  A    between atoms: _543  and  _544
REMARK  226  A    between atoms: _544  and  _545
REMARK  227  A    between atoms: _554  and  _556
REMARK  228  A    between atoms: _556  and  _557
REMARK  229  A    between atoms: _556  and  _559
REMARK  230  A    between atoms: _559  and  _560
REMARK                            x       y       z     vdW  Elec       q    Type
REMARK                         _______ _______ _______ _____ _____    ______ ____
ROOT
ATOM      1  C   ILE A   5      14.700  20.714  26.934  0.00  0.00    +0.241 C 
ATOM      2  N   ILE A   6      15.407  19.611  27.222  0.00  0.00    -0.297 N 
ATOM      3  H   ILE A   6      14.971  18.676  27.095  0.00  0.00    +0.150 HD
ATOM      4  O   ILE A   5      15.095  21.867  27.167  0.00  0.00    -0.273 OA
ENDROOT
BRANCH   1   5
ATOM      5  CA  ILE A   5      13.329  20.473  26.325  0.00  0.00    +0.149 C 
BRANCH   5   8
ATOM      6  C   ASN A   4      11.247  20.637  27.565  0.00  0.00    +0.241 C 
ATOM      7  O   ASN A   4      11.078  19.413  27.571  0.00  0.00    -0.273 OA
ATOM      8  N   ILE A   5      12.290  21.251  26.998  0.00  0.00    -0.297 N 
ATOM      9  H   ILE A   5      12.363  22.288  27.036  0.00  0.00    +0.150 HD
BRANCH   6  10
ATOM     10  CA  ASN A   4      10.213  21.547  28.214  0.00  0.00    +0.158 C 
BRANCH  10  12
ATOM     11  C   VAL A   3       8.615  21.406  26.429  0.00  0.00    +0.241 C 
ATOM     12  N   ASN A   4       8.907  21.171  27.699  0.00  0.00    -0.297 N 
ATOM     13  H   ASN A   4       8.207  20.721  28.323  0.00  0.00    +0.150 HD
ATOM     14  O   VAL A   3       9.353  22.057  25.688  0.00  0.00    -0.273 OA
BRANCH  11  15
ATOM     15  CA  VAL A   3       7.306  20.829  25.910  0.00  0.00    +0.149 C 
BRANCH  15  18
ATOM     16  C   PRO A   2       5.594  21.902  24.524  0.00  0.00    +0.241 C 
ATOM     17  O   PRO A   2       4.657  21.355  25.089  0.00  0.00    -0.273 OA
ATOM     18  N   VAL A   3       6.854  21.692  24.828  0.00  0.00    -0.297 N 
ATOM     19  H   VAL A   3       7.578  22.174  24.258  0.00  0.00    +0.150 HD
BRANCH  16  23
ATOM     20  C   THR A   1       6.644  24.743  23.941  0.00  0.00    +0.244 C 
ATOM     21  O   THR A   1       6.003  24.808  24.994  0.00  0.00    -0.273 OA
ATOM     22  N   PRO A   2       6.342  23.801  23.070  0.00  0.00    -0.272 N 
ATOM     23  CA  PRO A   2       5.298  22.825  23.356  0.00  0.00    +0.152 C 
ATOM     24  CB  PRO A   2       5.301  21.950  22.108  0.00  0.00    +0.031 C 
ATOM     25  CG  PRO A   2       6.651  22.154  21.493  0.00  0.00    +0.024 C 
ATOM     26  CD  PRO A   2       6.939  23.613  21.726  0.00  0.00    +0.094 C 
BRANCH  20  27
ATOM     27  CA  THR A   1       7.749  25.726  23.584  0.00  0.00    +0.172 C 
BRANCH  27  28
ATOM     28  N   THR A   1       7.386  27.019  24.123  0.00  0.00    -0.236 NA
ATOM     29  H   THR A   1       7.567  27.219  25.128  0.00  0.00    +0.142 HD
ENDBRANCH  27  28
BRANCH  27  30
ATOM     30  CB  THR A   1       9.089  25.243  24.142  0.00  0.00    +0.135 C 
ATOM     31  CG2 THR A   1       9.104  25.221  25.661  0.00  0.00    +0.034 C 
BRANCH  30  32
ATOM     32  OG1 THR A   1       9.308  23.901  23.709  0.00  0.00    -0.383 OA
ATOM     33  HG1 THR A   1       8.576  23.324  24.043  0.00  0.00    +0.210 HD
ENDBRANCH  30  32
ENDBRANCH  27  30
ENDBRANCH  20  27
ENDBRANCH  16  23
ENDBRANCH  15  18
BRANCH  15  34
ATOM     34  CB  VAL A   3       7.504  19.363  25.486  0.00  0.00    +0.027 C 
ATOM     35  CG2 VAL A   3       7.731  18.415  26.648  0.00  0.00    +0.002 C 
ATOM     36  CG1 VAL A   3       8.692  19.295  24.543  0.00  0.00    +0.002 C 
ENDBRANCH  15  34
ENDBRANCH  11  15
ENDBRANCH  10  12
BRANCH  10  37
ATOM     37  CB  ASN A   4      10.266  21.402  29.724  0.00  0.00    +0.114 C 
BRANCH  37  38
ATOM     38  CG  ASN A   4       9.298  22.260  30.474  0.00  0.00    +0.222 C 
ATOM     39  ND2 ASN A   4       8.719  21.727  31.522  0.00  0.00    -0.329 N 
ATOM     40 HD21 ASN A   4       8.039  22.283  32.079  0.00  0.00    +0.145 HD
ATOM     41 HD22 ASN A   4       8.939  20.748  31.796  0.00  0.00    +0.145 HD
ATOM     42  OD1 ASN A   4       9.092  23.411  30.083  0.00  0.00    -0.275 OA
ENDBRANCH  37  38
ENDBRANCH  10  37
ENDBRANCH   6  10
ENDBRANCH   5   8
BRANCH   5  43
ATOM     43  CB  ILE A   5      13.288  20.664  24.799  0.00  0.00    +0.027 C 
ATOM     44  CG2 ILE A   5      11.943  20.184  24.242  0.00  0.00    +0.002 C 
BRANCH  43  45
ATOM     45  CG1 ILE A   5      13.601  22.065  24.289  0.00  0.00    +0.002 C 
ATOM     46  CD1 ILE A   5      13.513  22.192  22.783  0.00  0.00    +0.000 C 
ENDBRANCH  43  45
ENDBRANCH   5  43
ENDBRANCH   1   5
BRANCH   2  47
ATOM     47  CA  ILE A   6      16.773  19.703  27.708  0.00  0.00    +0.149 C 
BRANCH  47  48
ATOM     48  C   ILE A   6      17.654  19.488  26.487  0.00  0.00    +0.241 C 
ATOM     49  N   GLY A   7      18.370  20.522  26.096  0.00  0.00    -0.295 N 
ATOM     50  H   GLY A   7      18.323  21.393  26.662  0.00  0.00    +0.150 HD
ATOM     51  O   ILE A   6      17.631  18.382  25.935  0.00  0.00    -0.273 OA
BRANCH  49  52
ATOM     52  CA  GLY A   7      19.209  20.514  24.936  0.00  0.00    +0.176 C 
BRANCH  52  53
ATOM     53  C   GLY A   7      20.644  20.195  25.229  0.00  0.00    +0.243 C 
ATOM     54  O   GLY A   7      20.970  19.942  26.395  0.00  0.00    -0.273 OA
ATOM     55  N   ARG A   8      21.467  20.143  24.199  0.00  0.00    -0.297 N 
ATOM     56  H   ARG A   8      21.144  20.443  23.257  0.00  0.00    +0.150 HD
BRANCH  55  57
ATOM     57  CA  ARG A   8      22.815  19.668  24.385  0.00  0.00    +0.149 C 
BRANCH  57  58
ATOM     58  C   ARG A   8      23.673  20.500  25.352  0.00  0.00    +0.241 C 
ATOM     59  O   ARG A   8      24.561  20.000  25.918  0.00  0.00    -0.273 OA
ATOM     60  N   ASN A   9      23.372  21.761  25.472  0.00  0.00    -0.298 N 
ATOM     61  H   ASN A   9      22.634  22.195  24.881  0.00  0.00    +0.150 HD
BRANCH  60  62
ATOM     62  CA  ASN A   9      24.107  22.552  26.467  0.00  0.00    +0.146 C 
BRANCH  62  63
ATOM     63  C   ASN A   9      24.074  21.969  27.882  0.00  0.00    +0.227 C 
ATOM     64  O   ASN A   9      25.083  22.081  28.616  0.00  0.00    -0.286 OA
ENDBRANCH  62  63
BRANCH  62  65
ATOM     65  CB  ASN A   9      23.646  23.992  26.447  0.00  0.00    +0.112 C 
BRANCH  65  66
ATOM     66  CG  ASN A   9      22.412  24.285  27.230  0.00  0.00    +0.222 C 
ATOM     67  OD1 ASN A   9      22.382  25.140  28.157  0.00  0.00    -0.275 OA
ATOM     68  ND2 ASN A   9      21.354  23.603  26.846  0.00  0.00    -0.329 N 
ATOM     69 HD21 ASN A   9      20.438  23.758  27.313  0.00  0.00    +0.145 HD
ATOM     70 HD22 ASN A   9      21.434  22.909  26.075  0.00  0.00    +0.145 HD
ENDBRANCH  65  66
ENDBRANCH  62  65
ENDBRANCH  60  62
ENDBRANCH  57  58
BRANCH  57  71
ATOM     71  CB  ARG A   8      23.536  19.618  23.028  0.00  0.00    +0.033 C 
BRANCH  71  72
ATOM     72  CG  ARG A   8      22.906  18.629  22.049  0.00  0.00    +0.045 C 
BRANCH  72  73
ATOM     73  CD  ARG A   8      23.768  18.506  20.779  0.00  0.00    +0.174 C 
BRANCH  73  74
ATOM     74  NE  ARG A   8      23.725  19.706  19.999  0.00  0.00    -0.265 N 
ATOM     75  CZ  ARG A   8      24.658  20.636  19.979  0.00  0.00    +0.342 C 
ATOM     76  NH2 ARG A   8      25.756  20.508  20.653  0.00  0.00    -0.292 N 
ATOM     77 HH21 ARG A   8      25.917  19.656  21.227  0.00  0.00    +0.255 HD
ATOM     78 HH22 ARG A   8      26.477  21.257  20.620  0.00  0.00    +0.255 HD
ATOM     79  NH1 ARG A   8      24.457  21.707  19.251  0.00  0.00    -0.292 N 
ATOM     80 HH11 ARG A   8      25.178  22.456  19.218  0.00  0.00    +0.255 HD
ATOM     81 HH12 ARG A   8      23.577  21.808  18.706  0.00  0.00    +0.255 HD
ATOM     82  HE  ARG A   8      22.889  19.856  19.399  0.00  0.00    +0.259 HD
ENDBRANCH  73  74
ENDBRANCH  72  73
ENDBRANCH  71  72
ENDBRANCH  57  71
ENDBRANCH  55  57
ENDBRANCH  52  53
ENDBRANCH  49  52
ENDBRANCH  47  48
BRANCH  47  83
ATOM     83  CB  ILE A   6      17.060  18.664  28.798  0.00  0.00    +0.027 C 
ATOM     84  CG2 ILE A   6      18.502  18.777  29.269  0.00  0.00    +0.002 C 
BRANCH  83  85
ATOM     85  CG1 ILE A   6      16.059  18.711  29.953  0.00  0.00    +0.002 C 
ATOM     86  CD1 ILE A   6      15.972  20.074  30.615  0.00  0.00    +0.000 C 
ENDBRANCH  83  85
ENDBRANCH  47  83
ENDBRANCH   2  47
TORSDOF 32
REMARK  Name = ../refined-set-2016/3pwm/3pwm_pocket.pdb
REMARK  230 active torsions:
REMARK  status: ('A' for Active; 'I' for Inactive)
REMARK    1  A    between atoms: _1  and  _3
REMARK    2  A    between atoms: _3  and  _4
REMARK    3  A    between atoms: _3  and  _6
REMARK    4  A    between atoms: _6  and  _7
REMARK    5  A    between atoms: _7  and  _8
REMARK    6  A    between atoms: _8  and  _9
REMARK    7  A    between atoms: _18  and  _20
REMARK    8  A    between atoms: _20  and  _21
REMARK    9  A    between atoms: _20  and  _23
REMARK   10  A    between atoms: _23  and  _24
REMARK   11  A    between atoms: _27  and  _29
REMARK   12  A    between atoms: _29  and  _30
REMARK   13  A    between atoms: _29  and  _32
REMARK   14  A    between atoms: _32  and  _33
REMARK   15  A    between atoms: _36  and  _38
REMARK   16  A    between atoms: _38  and  _39
REMARK   17  A    between atoms: _38  and  _41
REMARK   18  A    between atoms: _41  and  _42
REMARK   19  A    between atoms: _45  and  _47
REMARK   20  A    between atoms: _47  and  _48
REMARK   21  A    between atoms: _47  and  _50
REMARK   22  A    between atoms: _50  and  _51
REMARK   23  A    between atoms: _54  and  _56
REMARK   24  A    between atoms: _56  and  _57
REMARK   25  A    between atoms: _59  and  _61
REMARK   26  A    between atoms: _61  and  _62
REMARK   27  A    between atoms: _65  and  _67
REMARK   28  A    between atoms: _67  and  _68
REMARK   29  A    between atoms: _67  and  _70
REMARK   30  A    between atoms: _70  and  _71
REMARK   31  A    between atoms: _74  and  _76
REMARK   32  A    between atoms: _76  and  _77
REMARK   33  A    between atoms: _76  and  _79
REMARK   34  A    between atoms: _79  and  _80
REMARK   35  A    between atoms: _83  and  _85
REMARK   36  A    between atoms: _85  and  _86
REMARK   37  A    between atoms: _85  and  _88
REMARK   38  A    between atoms: _88  and  _89
REMARK   39  A    between atoms: _92  and  _94
REMARK   40  A    between atoms: _94  and  _95
REMARK   41  A    between atoms: _94  and  _97
REMARK   42  A    between atoms: _100  and  _102
REMARK   43  A    between atoms: _102  and  _103
REMARK   44  A    between atoms: _102  and  _105
REMARK   45  A    between atoms: _105  and  _106
REMARK   46  A    between atoms: _106  and  _107
REMARK   47  A    between atoms: _107  and  _108
REMARK   48  A    between atoms: _108  and  _109
REMARK   49  A    between atoms: _113  and  _115
REMARK   50  A    between atoms: _115  and  _116
REMARK   51  A    between atoms: _115  and  _118
REMARK   52  A    between atoms: _118  and  _119
REMARK   53  A    between atoms: _119  and  _120
REMARK   54  A    between atoms: _122  and  _124
REMARK   55  A    between atoms: _124  and  _125
REMARK   56  A    between atoms: _124  and  _127
REMARK   57  A    between atoms: _127  and  _128
REMARK   58  A    between atoms: _131  and  _133
REMARK   59  A    between atoms: _133  and  _134
REMARK   60  A    between atoms: _136  and  _138
REMARK   61  A    between atoms: _138  and  _139
REMARK   62  A    between atoms: _141  and  _143
REMARK   63  A    between atoms: _143  and  _144
REMARK   64  A    between atoms: _143  and  _146
REMARK   65  A    between atoms: _146  and  _147
REMARK   66  A    between atoms: _150  and  _152
REMARK   67  A    between atoms: _152  and  _153
REMARK   68  A    between atoms: _155  and  _157
REMARK   69  A    between atoms: _157  and  _158
REMARK   70  A    between atoms: _160  and  _162
REMARK   71  A    between atoms: _162  and  _163
REMARK   72  A    between atoms: _162  and  _165
REMARK   73  A    between atoms: _165  and  _166
REMARK   74  A    between atoms: _172  and  _174
REMARK   75  A    between atoms: _174  and  _175
REMARK   76  A    between atoms: _174  and  _177
REMARK   77  A    between atoms: _177  and  _178
REMARK   78  A    between atoms: _181  and  _183
REMARK   79  A    between atoms: _183  and  _184
REMARK   80  A    between atoms: _183  and  _186
REMARK   81  A    between atoms: _189  and  _191
REMARK   82  A    between atoms: _191  and  _192
REMARK   83  A    between atoms: _191  and  _194
REMARK   84  A    between atoms: _197  and  _199
REMARK   85  A    between atoms: _199  and  _200
REMARK   86  A    between atoms: _199  and  _202
REMARK   87  A    between atoms: _202  and  _203
REMARK   88  A    between atoms: _207  and  _208
REMARK   89  A    between atoms: _213  and  _215
REMARK   90  A    between atoms: _215  and  _216
REMARK   91  A    between atoms: _215  and  _218
REMARK   92  A    between atoms: _221  and  _223
REMARK   93  A    between atoms: _223  and  _224
REMARK   94  A    between atoms: _223  and  _226
REMARK   95  A    between atoms: _226  and  _227
REMARK   96  A    between atoms: _232  and  _234
REMARK   97  A    between atoms: _234  and  _235
REMARK   98  A    between atoms: _234  and  _237
REMARK   99  A    between atoms: _237  and  _238
REMARK  100  A    between atoms: _241  and  _243
REMARK  101  A    between atoms: _243  and  _244
REMARK  102  A    between atoms: _243  and  _246
REMARK  103  A    between atoms: _246  and  _247
REMARK  104  A    between atoms: _250  and  _252
REMARK  105  A    between atoms: _252  and  _253
REMARK  106  A    between atoms: _255  and  _257
REMARK  107  A    between atoms: _257  and  _258
REMARK  108  A    between atoms: _257  and  _260
REMARK  109  A    between atoms: _260  and  _261
REMARK  110  A    between atoms: _261  and  _262
REMARK  111  A    between atoms: _262  and  _263
REMARK  112  A    between atoms: _272  and  _274
REMARK  113  A    between atoms: _274  and  _275
REMARK  114  A    between atoms: _274  and  _277
REMARK  115  A    between atoms: _277  and  _278
REMARK  116  A    between atoms: _283  and  _285
REMARK  117  A    between atoms: _285  and  _286
REMARK  118  A    between atoms: _285  and  _288
REMARK  119  A    between atoms: _288  and  _289
REMARK  120  A    between atoms: _289  and  _290
REMARK  121  A    between atoms: _290  and  _291
REMARK  122  A    between atoms: _300  and  _302
REMARK  123  A    between atoms: _302  and  _303
REMARK  124  A    between atoms: _302  and  _305
REMARK  125  A    between atoms: _305  and  _306
REMARK  126  A    between atoms: _309  and  _311
REMARK  127  A    between atoms: _311  and  _312
REMARK  128  A    between atoms: _311  and  _314
REMARK  129  A    between atoms: _314  and  _315
REMARK  130  A    between atoms: _318  and  _320
REMARK  131  A    between atoms: _320  and  _321
REMARK  132  A    between atoms: _320  and  _323
REMARK  133  A    between atoms: _323  and  _324
REMARK  134  A    between atoms: _327  and  _329
REMARK  135  A    between atoms: _329  and  _330
REMARK  136  A    between atoms: _329  and  _332
REMARK  137  A    between atoms: _332  and  _333
REMARK  138  A    between atoms: _336  and  _338
REMARK  139  A    between atoms: _338  and  _339
REMARK  140  A    between atoms: _341  and  _343
REMARK  141  A    between atoms: _343  and  _344
REMARK  142  A    between atoms: _347  and  _349
REMARK  143  A    between atoms: _349  and  _350
REMARK  144  A    between atoms: _349  and  _352
REMARK  145  A    between atoms: _352  and  _353
REMARK  146  A    between atoms: _356  and  _358
REMARK  147  A    between atoms: _358  and  _359
REMARK  148  A    between atoms: _358  and  _361
REMARK  149  A    between atoms: _361  and  _362
REMARK  150  A    between atoms: _365  and  _367
REMARK  151  A    between atoms: _367  and  _368
REMARK  152  A    between atoms: _367  and  _370
REMARK  153  A    between atoms: _370  and  _371
REMARK  154  A    between atoms: _374  and  _376
REMARK  155  A    between atoms: _376  and  _377
REMARK  156  A    between atoms: _376  and  _379
REMARK  157  A    between atoms: _382  and  _384
REMARK  158  A    between atoms: _384  and  _385
REMARK  159  A    between atoms: _384  and  _387
REMARK  160  A    between atoms: _387  and  _388
REMARK  161  A    between atoms: _388  and  _389
REMARK  162  A    between atoms: _389  and  _390
REMARK  163  A    between atoms: _390  and  _391
REMARK  164  A    between atoms: _395  and  _397
REMARK  165  A    between atoms: _397  and  _398
REMARK  166  A    between atoms: _397  and  _400
REMARK  167  A    between atoms: _400  and  _401
REMARK  168  A    between atoms: _401  and  _402
REMARK  169  A    between atoms: _404  and  _406
REMARK  170  A    between atoms: _406  and  _407
REMARK  171  A    between atoms: _406  and  _409
REMARK  172  A    between atoms: _409  and  _410
REMARK  173  A    between atoms: _413  and  _415
REMARK  174  A    between atoms: _415  and  _416
REMARK  175  A    between atoms: _418  and  _420
REMARK  176  A    between atoms: _420  and  _421
REMARK  177  A    between atoms: _423  and  _425
REMARK  178  A    between atoms: _425  and  _426
REMARK  179  A    between atoms: _425  and  _428
REMARK  180  A    between atoms: _428  and  _429
REMARK  181  A    between atoms: _432  and  _434
REMARK  182  A    between atoms: _434  and  _435
REMARK  183  A    between atoms: _437  and  _439
REMARK  184  A    between atoms: _439  and  _440
REMARK  185  A    between atoms: _442  and  _444
REMARK  186  A    between atoms: _444  and  _445
REMARK  187  A    between atoms: _444  and  _447
REMARK  188  A    between atoms: _447  and  _448
REMARK  189  A    between atoms: _454  and  _456
REMARK  190  A    between atoms: _456  and  _457
REMARK  191  A    between atoms: _456  and  _459
REMARK  192  A    between atoms: _459  and  _460
REMARK  193  A    between atoms: _463  and  _465
REMARK  194  A    between atoms: _465  and  _466
REMARK  195  A    between atoms: _465  and  _468
REMARK  196  A    between atoms: _471  and  _473
REMARK  197  A    between atoms: _473  and  _474
REMARK  198  A    between atoms: _473  and  _476
REMARK  199  A    between atoms: _479  and  _481
REMARK  200  A    between atoms: _481  and  _482
REMARK  201  A    between atoms: _481  and  _484
REMARK  202  A    between atoms: _484  and  _485
REMARK  203  A    between atoms: _489  and  _490
REMARK  204  A    between atoms: _495  and  _497
REMARK  205  A    between atoms: _497  and  _498
REMARK  206  A    between atoms: _497  and  _500
REMARK  207  A    between atoms: _503  and  _505
REMARK  208  A    between atoms: _505  and  _506
REMARK  209  A    between atoms: _505  and  _508
REMARK  210  A    between atoms: _508  and  _509
REMARK  211  A    between atoms: _514  and  _516
REMARK  212  A    between atoms: _516  and  _517
REMARK  213  A    between atoms: _516  and  _519
REMARK  214  A    between atoms: _519  and  _520
REMARK  215  A    between atoms: _523  and  _525
REMARK  216  A    between atoms: _525  and  _526
REMARK  217  A    between atoms: _525  and  _528
REMARK  218  A    between atoms: _528  and  _529
REMARK  219  A    between atoms: _532  and  _534
REMARK  220  A    between atoms: _534  and  _535
REMARK  221  A    between atoms: _537  and  _539
REMARK  222  A    between atoms: _539  and  _540
REMARK  223  A    between atoms: _539  and  _542
REMARK  224  A    between atoms: _542  and  _543
REMARK  225  A    between atoms: _543  and  _544
REMARK  226  A    between atoms: _544  and  _545
REMARK  227  A    between atoms: _554  and  _556
REMARK  228  A    between atoms: _556  and  _557
REMARK  229  A    between atoms: _556  and  _559
REMARK  230  A    between atoms: _559  and  _560
REMARK                            x       y       z     vdW  Elec       q    Type
REMARK                         _______ _______ _______ _____ _____    ______ ____
ROOT
ATOM      1  O   HOH     1      19.603  25.009  12.301  0.00  0.00    +0.000 OA
ENDROOT
TORSDOF 0
REMARK  Name = ../refined-set-2016/3pwm/3pwm_pocket.pdb
REMARK  230 active torsions:
REMARK  status: ('A' for Active; 'I' for Inactive)
REMARK    1  A    between atoms: _1  and  _3
REMARK    2  A    between atoms: _3  and  _4
REMARK    3  A    between atoms: _3  and  _6
REMARK    4  A    between atoms: _6  and  _7
REMARK    5  A    between atoms: _7  and  _8
REMARK    6  A    between atoms: _8  and  _9
REMARK    7  A    between atoms: _18  and  _20
REMARK    8  A    between atoms: _20  and  _21
REMARK    9  A    between atoms: _20  and  _23
REMARK   10  A    between atoms: _23  and  _24
REMARK   11  A    between atoms: _27  and  _29
REMARK   12  A    between atoms: _29  and  _30
REMARK   13  A    between atoms: _29  and  _32
REMARK   14  A    between atoms: _32  and  _33
REMARK   15  A    between atoms: _36  and  _38
REMARK   16  A    between atoms: _38  and  _39
REMARK   17  A    between atoms: _38  and  _41
REMARK   18  A    between atoms: _41  and  _42
REMARK   19  A    between atoms: _45  and  _47
REMARK   20  A    between atoms: _47  and  _48
REMARK   21  A    between atoms: _47  and  _50
REMARK   22  A    between atoms: _50  and  _51
REMARK   23  A    between atoms: _54  and  _56
REMARK   24  A    between atoms: _56  and  _57
REMARK   25  A    between atoms: _59  and  _61
REMARK   26  A    between atoms: _61  and  _62
REMARK   27  A    between atoms: _65  and  _67
REMARK   28  A    between atoms: _67  and  _68
REMARK   29  A    between atoms: _67  and  _70
REMARK   30  A    between atoms: _70  and  _71
REMARK   31  A    between atoms: _74  and  _76
REMARK   32  A    between atoms: _76  and  _77
REMARK   33  A    between atoms: _76  and  _79
REMARK   34  A    between atoms: _79  and  _80
REMARK   35  A    between atoms: _83  and  _85
REMARK   36  A    between atoms: _85  and  _86
REMARK   37  A    between atoms: _85  and  _88
REMARK   38  A    between atoms: _88  and  _89
REMARK   39  A    between atoms: _92  and  _94
REMARK   40  A    between atoms: _94  and  _95
REMARK   41  A    between atoms: _94  and  _97
REMARK   42  A    between atoms: _100  and  _102
REMARK   43  A    between atoms: _102  and  _103
REMARK   44  A    between atoms: _102  and  _105
REMARK   45  A    between atoms: _105  and  _106
REMARK   46  A    between atoms: _106  and  _107
REMARK   47  A    between atoms: _107  and  _108
REMARK   48  A    between atoms: _108  and  _109
REMARK   49  A    between atoms: _113  and  _115
REMARK   50  A    between atoms: _115  and  _116
REMARK   51  A    between atoms: _115  and  _118
REMARK   52  A    between atoms: _118  and  _119
REMARK   53  A    between atoms: _119  and  _120
REMARK   54  A    between atoms: _122  and  _124
REMARK   55  A    between atoms: _124  and  _125
REMARK   56  A    between atoms: _124  and  _127
REMARK   57  A    between atoms: _127  and  _128
REMARK   58  A    between atoms: _131  and  _133
REMARK   59  A    between atoms: _133  and  _134
REMARK   60  A    between atoms: _136  and  _138
REMARK   61  A    between atoms: _138  and  _139
REMARK   62  A    between atoms: _141  and  _143
REMARK   63  A    between atoms: _143  and  _144
REMARK   64  A    between atoms: _143  and  _146
REMARK   65  A    between atoms: _146  and  _147
REMARK   66  A    between atoms: _150  and  _152
REMARK   67  A    between atoms: _152  and  _153
REMARK   68  A    between atoms: _155  and  _157
REMARK   69  A    between atoms: _157  and  _158
REMARK   70  A    between atoms: _160  and  _162
REMARK   71  A    between atoms: _162  and  _163
REMARK   72  A    between atoms: _162  and  _165
REMARK   73  A    between atoms: _165  and  _166
REMARK   74  A    between atoms: _172  and  _174
REMARK   75  A    between atoms: _174  and  _175
REMARK   76  A    between atoms: _174  and  _177
REMARK   77  A    between atoms: _177  and  _178
REMARK   78  A    between atoms: _181  and  _183
REMARK   79  A    between atoms: _183  and  _184
REMARK   80  A    between atoms: _183  and  _186
REMARK   81  A    between atoms: _189  and  _191
REMARK   82  A    between atoms: _191  and  _192
REMARK   83  A    between atoms: _191  and  _194
REMARK   84  A    between atoms: _197  and  _199
REMARK   85  A    between atoms: _199  and  _200
REMARK   86  A    between atoms: _199  and  _202
REMARK   87  A    between atoms: _202  and  _203
REMARK   88  A    between atoms: _207  and  _208
REMARK   89  A    between atoms: _213  and  _215
REMARK   90  A    between atoms: _215  and  _216
REMARK   91  A    between atoms: _215  and  _218
REMARK   92  A    between atoms: _221  and  _223
REMARK   93  A    between atoms: _223  and  _224
REMARK   94  A    between atoms: _223  and  _226
REMARK   95  A    between atoms: _226  and  _227
REMARK   96  A    between atoms: _232  and  _234
REMARK   97  A    between atoms: _234  and  _235
REMARK   98  A    between atoms: _234  and  _237
REMARK   99  A    between atoms: _237  and  _238
REMARK  100  A    between atoms: _241  and  _243
REMARK  101  A    between atoms: _243  and  _244
REMARK  102  A    between atoms: _243  and  _246
REMARK  103  A    between atoms: _246  and  _247
REMARK  104  A    between atoms: _250  and  _252
REMARK  105  A    between atoms: _252  and  _253
REMARK  106  A    between atoms: _255  and  _257
REMARK  107  A    between atoms: _257  and  _258
REMARK  108  A    between atoms: _257  and  _260
REMARK  109  A    between atoms: _260  and  _261
REMARK  110  A    between atoms: _261  and  _262
REMARK  111  A    between atoms: _262  and  _263
REMARK  112  A    between atoms: _272  and  _274
REMARK  113  A    between atoms: _274  and  _275
REMARK  114  A    between atoms: _274  and  _277
REMARK  115  A    between atoms: _277  and  _278
REMARK  116  A    between atoms: _283  and  _285
REMARK  117  A    between atoms: _285  and  _286
REMARK  118  A    between atoms: _285  and  _288
REMARK  119  A    between atoms: _288  and  _289
REMARK  120  A    between atoms: _289  and  _290
REMARK  121  A    between atoms: _290  and  _291
REMARK  122  A    between atoms: _300  and  _302
REMARK  123  A    between atoms: _302  and  _303
REMARK  124  A    between atoms: _302  and  _305
REMARK  125  A    between atoms: _305  and  _306
REMARK  126  A    between atoms: _309  and  _311
REMARK  127  A    between atoms: _311  and  _312
REMARK  128  A    between atoms: _311  and  _314
REMARK  129  A    between atoms: _314  and  _315
REMARK  130  A    between atoms: _318  and  _320
REMARK  131  A    between atoms: _320  and  _321
REMARK  132  A    between atoms: _320  and  _323
REMARK  133  A    between atoms: _323  and  _324
REMARK  134  A    between atoms: _327  and  _329
REMARK  135  A    between atoms: _329  and  _330
REMARK  136  A    between atoms: _329  and  _332
REMARK  137  A    between atoms: _332  and  _333
REMARK  138  A    between atoms: _336  and  _338
REMARK  139  A    between atoms: _338  and  _339
REMARK  140  A    between atoms: _341  and  _343
REMARK  141  A    between atoms: _343  and  _344
REMARK  142  A    between atoms: _347  and  _349
REMARK  143  A    between atoms: _349  and  _350
REMARK  144  A    between atoms: _349  and  _352
REMARK  145  A    between atoms: _352  and  _353
REMARK  146  A    between atoms: _356  and  _358
REMARK  147  A    between atoms: _358  and  _359
REMARK  148  A    between atoms: _358  and  _361
REMARK  149  A    between atoms: _361  and  _362
REMARK  150  A    between atoms: _365  and  _367
REMARK  151  A    between atoms: _367  and  _368
REMARK  152  A    between atoms: _367  and  _370
REMARK  153  A    between atoms: _370  and  _371
REMARK  154  A    between atoms: _374  and  _376
REMARK  155  A    between atoms: _376  and  _377
REMARK  156  A    between atoms: _376  and  _379
REMARK  157  A    between atoms: _382  and  _384
REMARK  158  A    between atoms: _384  and  _385
REMARK  159  A    between atoms: _384  and  _387
REMARK  160  A    between atoms: _387  and  _388
REMARK  161  A    between atoms: _388  and  _389
REMARK  162  A    between atoms: _389  and  _390
REMARK  163  A    between atoms: _390  and  _391
REMARK  164  A    between atoms: _395  and  _397
REMARK  165  A    between atoms: _397  and  _398
REMARK  166  A    between atoms: _397  and  _400
REMARK  167  A    between atoms: _400  and  _401
REMARK  168  A    between atoms: _401  and  _402
REMARK  169  A    between atoms: _404  and  _406
REMARK  170  A    between atoms: _406  and  _407
REMARK  171  A    between atoms: _406  and  _409
REMARK  172  A    between atoms: _409  and  _410
REMARK  173  A    between atoms: _413  and  _415
REMARK  174  A    between atoms: _415  and  _416
REMARK  175  A    between atoms: _418  and  _420
REMARK  176  A    between atoms: _420  and  _421
REMARK  177  A    between atoms: _423  and  _425
REMARK  178  A    between atoms: _425  and  _426
REMARK  179  A    between atoms: _425  and  _428
REMARK  180  A    between atoms: _428  and  _429
REMARK  181  A    between atoms: _432  and  _434
REMARK  182  A    between atoms: _434  and  _435
REMARK  183  A    between atoms: _437  and  _439
REMARK  184  A    between atoms: _439  and  _440
REMARK  185  A    between atoms: _442  and  _444
REMARK  186  A    between atoms: _444  and  _445
REMARK  187  A    between atoms: _444  and  _447
REMARK  188  A    between atoms: _447  and  _448
REMARK  189  A    between atoms: _454  and  _456
REMARK  190  A    between atoms: _456  and  _457
REMARK  191  A    between atoms: _456  and  _459
REMARK  192  A    between atoms: _459  and  _460
REMARK  193  A    between atoms: _463  and  _465
REMARK  194  A    between atoms: _465  and  _466
REMARK  195  A    between atoms: _465  and  _468
REMARK  196  A    between atoms: _471  and  _473
REMARK  197  A    between atoms: _473  and  _474
REMARK  198  A    between atoms: _473  and  _476
REMARK  199  A    between atoms: _479  and  _481
REMARK  200  A    between atoms: _481  and  _482
REMARK  201  A    between atoms: _481  and  _484
REMARK  202  A    between atoms: _484  and  _485
REMARK  203  A    between atoms: _489  and  _490
REMARK  204  A    between atoms: _495  and  _497
REMARK  205  A    between atoms: _497  and  _498
REMARK  206  A    between atoms: _497  and  _500
REMARK  207  A    between atoms: _503  and  _505
REMARK  208  A    between atoms: _505  and  _506
REMARK  209  A    between atoms: _505  and  _508
REMARK  210  A    between atoms: _508  and  _509
REMARK  211  A    between atoms: _514  and  _516
REMARK  212  A    between atoms: _516  and  _517
REMARK  213  A    between atoms: _516  and  _519
REMARK  214  A    between atoms: _519  and  _520
REMARK  215  A    between atoms: _523  and  _525
REMARK  216  A    between atoms: _525  and  _526
REMARK  217  A    between atoms: _525  and  _528
REMARK  218  A    between atoms: _528  and  _529
REMARK  219  A    between atoms: _532  and  _534
REMARK  220  A    between atoms: _534  and  _535
REMARK  221  A    between atoms: _537  and  _539
REMARK  222  A    between atoms: _539  and  _540
REMARK  223  A    between atoms: _539  and  _542
REMARK  224  A    between atoms: _542  and  _543
REMARK  225  A    between atoms: _543  and  _544
REMARK  226  A    between atoms: _544  and  _545
REMARK  227  A    between atoms: _554  and  _556
REMARK  228  A    between atoms: _556  and  _557
REMARK  229  A    between atoms: _556  and  _559
REMARK  230  A    between atoms: _559  and  _560
REMARK                            x       y       z     vdW  Elec       q    Type
REMARK                         _______ _______ _______ _____ _____    ______ ____
ROOT
ATOM      1  O   HOH     1      10.819  12.173  21.700  0.00  0.00    +0.000 OA
ENDROOT
TORSDOF 0
REMARK  Name = ../refined-set-2016/3pwm/3pwm_pocket.pdb
REMARK  230 active torsions:
REMARK  status: ('A' for Active; 'I' for Inactive)
REMARK    1  A    between atoms: _1  and  _3
REMARK    2  A    between atoms: _3  and  _4
REMARK    3  A    between atoms: _3  and  _6
REMARK    4  A    between atoms: _6  and  _7
REMARK    5  A    between atoms: _7  and  _8
REMARK    6  A    between atoms: _8  and  _9
REMARK    7  A    between atoms: _18  and  _20
REMARK    8  A    between atoms: _20  and  _21
REMARK    9  A    between atoms: _20  and  _23
REMARK   10  A    between atoms: _23  and  _24
REMARK   11  A    between atoms: _27  and  _29
REMARK   12  A    between atoms: _29  and  _30
REMARK   13  A    between atoms: _29  and  _32
REMARK   14  A    between atoms: _32  and  _33
REMARK   15  A    between atoms: _36  and  _38
REMARK   16  A    between atoms: _38  and  _39
REMARK   17  A    between atoms: _38  and  _41
REMARK   18  A    between atoms: _41  and  _42
REMARK   19  A    between atoms: _45  and  _47
REMARK   20  A    between atoms: _47  and  _48
REMARK   21  A    between atoms: _47  and  _50
REMARK   22  A    between atoms: _50  and  _51
REMARK   23  A    between atoms: _54  and  _56
REMARK   24  A    between atoms: _56  and  _57
REMARK   25  A    between atoms: _59  and  _61
REMARK   26  A    between atoms: _61  and  _62
REMARK   27  A    between atoms: _65  and  _67
REMARK   28  A    between atoms: _67  and  _68
REMARK   29  A    between atoms: _67  and  _70
REMARK   30  A    between atoms: _70  and  _71
REMARK   31  A    between atoms: _74  and  _76
REMARK   32  A    between atoms: _76  and  _77
REMARK   33  A    between atoms: _76  and  _79
REMARK   34  A    between atoms: _79  and  _80
REMARK   35  A    between atoms: _83  and  _85
REMARK   36  A    between atoms: _85  and  _86
REMARK   37  A    between atoms: _85  and  _88
REMARK   38  A    between atoms: _88  and  _89
REMARK   39  A    between atoms: _92  and  _94
REMARK   40  A    between atoms: _94  and  _95
REMARK   41  A    between atoms: _94  and  _97
REMARK   42  A    between atoms: _100  and  _102
REMARK   43  A    between atoms: _102  and  _103
REMARK   44  A    between atoms: _102  and  _105
REMARK   45  A    between atoms: _105  and  _106
REMARK   46  A    between atoms: _106  and  _107
REMARK   47  A    between atoms: _107  and  _108
REMARK   48  A    between atoms: _108  and  _109
REMARK   49  A    between atoms: _113  and  _115
REMARK   50  A    between atoms: _115  and  _116
REMARK   51  A    between atoms: _115  and  _118
REMARK   52  A    between atoms: _118  and  _119
REMARK   53  A    between atoms: _119  and  _120
REMARK   54  A    between atoms: _122  and  _124
REMARK   55  A    between atoms: _124  and  _125
REMARK   56  A    between atoms: _124  and  _127
REMARK   57  A    between atoms: _127  and  _128
REMARK   58  A    between atoms: _131  and  _133
REMARK   59  A    between atoms: _133  and  _134
REMARK   60  A    between atoms: _136  and  _138
REMARK   61  A    between atoms: _138  and  _139
REMARK   62  A    between atoms: _141  and  _143
REMARK   63  A    between atoms: _143  and  _144
REMARK   64  A    between atoms: _143  and  _146
REMARK   65  A    between atoms: _146  and  _147
REMARK   66  A    between atoms: _150  and  _152
REMARK   67  A    between atoms: _152  and  _153
REMARK   68  A    between atoms: _155  and  _157
REMARK   69  A    between atoms: _157  and  _158
REMARK   70  A    between atoms: _160  and  _162
REMARK   71  A    between atoms: _162  and  _163
REMARK   72  A    between atoms: _162  and  _165
REMARK   73  A    between atoms: _165  and  _166
REMARK   74  A    between atoms: _172  and  _174
REMARK   75  A    between atoms: _174  and  _175
REMARK   76  A    between atoms: _174  and  _177
REMARK   77  A    between atoms: _177  and  _178
REMARK   78  A    between atoms: _181  and  _183
REMARK   79  A    between atoms: _183  and  _184
REMARK   80  A    between atoms: _183  and  _186
REMARK   81  A    between atoms: _189  and  _191
REMARK   82  A    between atoms: _191  and  _192
REMARK   83  A    between atoms: _191  and  _194
REMARK   84  A    between atoms: _197  and  _199
REMARK   85  A    between atoms: _199  and  _200
REMARK   86  A    between atoms: _199  and  _202
REMARK   87  A    between atoms: _202  and  _203
REMARK   88  A    between atoms: _207  and  _208
REMARK   89  A    between atoms: _213  and  _215
REMARK   90  A    between atoms: _215  and  _216
REMARK   91  A    between atoms: _215  and  _218
REMARK   92  A    between atoms: _221  and  _223
REMARK   93  A    between atoms: _223  and  _224
REMARK   94  A    between atoms: _223  and  _226
REMARK   95  A    between atoms: _226  and  _227
REMARK   96  A    between atoms: _232  and  _234
REMARK   97  A    between atoms: _234  and  _235
REMARK   98  A    between atoms: _234  and  _237
REMARK   99  A    between atoms: _237  and  _238
REMARK  100  A    between atoms: _241  and  _243
REMARK  101  A    between atoms: _243  and  _244
REMARK  102  A    between atoms: _243  and  _246
REMARK  103  A    between atoms: _246  and  _247
REMARK  104  A    between atoms: _250  and  _252
REMARK  105  A    between atoms: _252  and  _253
REMARK  106  A    between atoms: _255  and  _257
REMARK  107  A    between atoms: _257  and  _258
REMARK  108  A    between atoms: _257  and  _260
REMARK  109  A    between atoms: _260  and  _261
REMARK  110  A    between atoms: _261  and  _262
REMARK  111  A    between atoms: _262  and  _263
REMARK  112  A    between atoms: _272  and  _274
REMARK  113  A    between atoms: _274  and  _275
REMARK  114  A    between atoms: _274  and  _277
REMARK  115  A    between atoms: _277  and  _278
REMARK  116  A    between atoms: _283  and  _285
REMARK  117  A    between atoms: _285  and  _286
REMARK  118  A    between atoms: _285  and  _288
REMARK  119  A    between atoms: _288  and  _289
REMARK  120  A    between atoms: _289  and  _290
REMARK  121  A    between atoms: _290  and  _291
REMARK  122  A    between atoms: _300  and  _302
REMARK  123  A    between atoms: _302  and  _303
REMARK  124  A    between atoms: _302  and  _305
REMARK  125  A    between atoms: _305  and  _306
REMARK  126  A    between atoms: _309  and  _311
REMARK  127  A    between atoms: _311  and  _312
REMARK  128  A    between atoms: _311  and  _314
REMARK  129  A    between atoms: _314  and  _315
REMARK  130  A    between atoms: _318  and  _320
REMARK  131  A    between atoms: _320  and  _321
REMARK  132  A    between atoms: _320  and  _323
REMARK  133  A    between atoms: _323  and  _324
REMARK  134  A    between atoms: _327  and  _329
REMARK  135  A    between atoms: _329  and  _330
REMARK  136  A    between atoms: _329  and  _332
REMARK  137  A    between atoms: _332  and  _333
REMARK  138  A    between atoms: _336  and  _338
REMARK  139  A    between atoms: _338  and  _339
REMARK  140  A    between atoms: _341  and  _343
REMARK  141  A    between atoms: _343  and  _344
REMARK  142  A    between atoms: _347  and  _349
REMARK  143  A    between atoms: _349  and  _350
REMARK  144  A    between atoms: _349  and  _352
REMARK  145  A    between atoms: _352  and  _353
REMARK  146  A    between atoms: _356  and  _358
REMARK  147  A    between atoms: _358  and  _359
REMARK  148  A    between atoms: _358  and  _361
REMARK  149  A    between atoms: _361  and  _362
REMARK  150  A    between atoms: _365  and  _367
REMARK  151  A    between atoms: _367  and  _368
REMARK  152  A    between atoms: _367  and  _370
REMARK  153  A    between atoms: _370  and  _371
REMARK  154  A    between atoms: _374  and  _376
REMARK  155  A    between atoms: _376  and  _377
REMARK  156  A    between atoms: _376  and  _379
REMARK  157  A    between atoms: _382  and  _384
REMARK  158  A    between atoms: _384  and  _385
REMARK  159  A    between atoms: _384  and  _387
REMARK  160  A    between atoms: _387  and  _388
REMARK  161  A    between atoms: _388  and  _389
REMARK  162  A    between atoms: _389  and  _390
REMARK  163  A    between atoms: _390  and  _391
REMARK  164  A    between atoms: _395  and  _397
REMARK  165  A    between atoms: _397  and  _398
REMARK  166  A    between atoms: _397  and  _400
REMARK  167  A    between atoms: _400  and  _401
REMARK  168  A    between atoms: _401  and  _402
REMARK  169  A    between atoms: _404  and  _406
REMARK  170  A    between atoms: _406  and  _407
REMARK  171  A    between atoms: _406  and  _409
REMARK  172  A    between atoms: _409  and  _410
REMARK  173  A    between atoms: _413  and  _415
REMARK  174  A    between atoms: _415  and  _416
REMARK  175  A    between atoms: _418  and  _420
REMARK  176  A    between atoms: _420  and  _421
REMARK  177  A    between atoms: _423  and  _425
REMARK  178  A    between atoms: _425  and  _426
REMARK  179  A    between atoms: _425  and  _428
REMARK  180  A    between atoms: _428  and  _429
REMARK  181  A    between atoms: _432  and  _434
REMARK  182  A    between atoms: _434  and  _435
REMARK  183  A    between atoms: _437  and  _439
REMARK  184  A    between atoms: _439  and  _440
REMARK  185  A    between atoms: _442  and  _444
REMARK  186  A    between atoms: _444  and  _445
REMARK  187  A    between atoms: _444  and  _447
REMARK  188  A    between atoms: _447  and  _448
REMARK  189  A    between atoms: _454  and  _456
REMARK  190  A    between atoms: _456  and  _457
REMARK  191  A    between atoms: _456  and  _459
REMARK  192  A    between atoms: _459  and  _460
REMARK  193  A    between atoms: _463  and  _465
REMARK  194  A    between atoms: _465  and  _466
REMARK  195  A    between atoms: _465  and  _468
REMARK  196  A    between atoms: _471  and  _473
REMARK  197  A    between atoms: _473  and  _474
REMARK  198  A    between atoms: _473  and  _476
REMARK  199  A    between atoms: _479  and  _481
REMARK  200  A    between atoms: _481  and  _482
REMARK  201  A    between atoms: _481  and  _484
REMARK  202  A    between atoms: _484  and  _485
REMARK  203  A    between atoms: _489  and  _490
REMARK  204  A    between atoms: _495  and  _497
REMARK  205  A    between atoms: _497  and  _498
REMARK  206  A    between atoms: _497  and  _500
REMARK  207  A    between atoms: _503  and  _505
REMARK  208  A    between atoms: _505  and  _506
REMARK  209  A    between atoms: _505  and  _508
REMARK  210  A    between atoms: _508  and  _509
REMARK  211  A    between atoms: _514  and  _516
REMARK  212  A    between atoms: _516  and  _517
REMARK  213  A    between atoms: _516  and  _519
REMARK  214  A    between atoms: _519  and  _520
REMARK  215  A    between atoms: _523  and  _525
REMARK  216  A    between atoms: _525  and  _526
REMARK  217  A    between atoms: _525  and  _528
REMARK  218  A    between atoms: _528  and  _529
REMARK  219  A    between atoms: _532  and  _534
REMARK  220  A    between atoms: _534  and  _535
REMARK  221  A    between atoms: _537  and  _539
REMARK  222  A    between atoms: _539  and  _540
REMARK  223  A    between atoms: _539  and  _542
REMARK  224  A    between atoms: _542  and  _543
REMARK  225  A    between atoms: _543  and  _544
REMARK  226  A    between atoms: _544  and  _545
REMARK  227  A    between atoms: _554  and  _556
REMARK  228  A    between atoms: _556  and  _557
REMARK  229  A    between atoms: _556  and  _559
REMARK  230  A    between atoms: _559  and  _560
REMARK                            x       y       z     vdW  Elec       q    Type
REMARK                         _______ _______ _______ _____ _____    ______ ____
ROOT
ATOM      1  O   HOH     1       8.382   9.461  10.561  0.00  0.00    +0.000 OA
ENDROOT
TORSDOF 0
REMARK  Name = ../refined-set-2016/3pwm/3pwm_pocket.pdb
REMARK  230 active torsions:
REMARK  status: ('A' for Active; 'I' for Inactive)
REMARK    1  A    between atoms: _1  and  _3
REMARK    2  A    between atoms: _3  and  _4
REMARK    3  A    between atoms: _3  and  _6
REMARK    4  A    between atoms: _6  and  _7
REMARK    5  A    between atoms: _7  and  _8
REMARK    6  A    between atoms: _8  and  _9
REMARK    7  A    between atoms: _18  and  _20
REMARK    8  A    between atoms: _20  and  _21
REMARK    9  A    between atoms: _20  and  _23
REMARK   10  A    between atoms: _23  and  _24
REMARK   11  A    between atoms: _27  and  _29
REMARK   12  A    between atoms: _29  and  _30
REMARK   13  A    between atoms: _29  and  _32
REMARK   14  A    between atoms: _32  and  _33
REMARK   15  A    between atoms: _36  and  _38
REMARK   16  A    between atoms: _38  and  _39
REMARK   17  A    between atoms: _38  and  _41
REMARK   18  A    between atoms: _41  and  _42
REMARK   19  A    between atoms: _45  and  _47
REMARK   20  A    between atoms: _47  and  _48
REMARK   21  A    between atoms: _47  and  _50
REMARK   22  A    between atoms: _50  and  _51
REMARK   23  A    between atoms: _54  and  _56
REMARK   24  A    between atoms: _56  and  _57
REMARK   25  A    between atoms: _59  and  _61
REMARK   26  A    between atoms: _61  and  _62
REMARK   27  A    between atoms: _65  and  _67
REMARK   28  A    between atoms: _67  and  _68
REMARK   29  A    between atoms: _67  and  _70
REMARK   30  A    between atoms: _70  and  _71
REMARK   31  A    between atoms: _74  and  _76
REMARK   32  A    between atoms: _76  and  _77
REMARK   33  A    between atoms: _76  and  _79
REMARK   34  A    between atoms: _79  and  _80
REMARK   35  A    between atoms: _83  and  _85
REMARK   36  A    between atoms: _85  and  _86
REMARK   37  A    between atoms: _85  and  _88
REMARK   38  A    between atoms: _88  and  _89
REMARK   39  A    between atoms: _92  and  _94
REMARK   40  A    between atoms: _94  and  _95
REMARK   41  A    between atoms: _94  and  _97
REMARK   42  A    between atoms: _100  and  _102
REMARK   43  A    between atoms: _102  and  _103
REMARK   44  A    between atoms: _102  and  _105
REMARK   45  A    between atoms: _105  and  _106
REMARK   46  A    between atoms: _106  and  _107
REMARK   47  A    between atoms: _107  and  _108
REMARK   48  A    between atoms: _108  and  _109
REMARK   49  A    between atoms: _113  and  _115
REMARK   50  A    between atoms: _115  and  _116
REMARK   51  A    between atoms: _115  and  _118
REMARK   52  A    between atoms: _118  and  _119
REMARK   53  A    between atoms: _119  and  _120
REMARK   54  A    between atoms: _122  and  _124
REMARK   55  A    between atoms: _124  and  _125
REMARK   56  A    between atoms: _124  and  _127
REMARK   57  A    between atoms: _127  and  _128
REMARK   58  A    between atoms: _131  and  _133
REMARK   59  A    between atoms: _133  and  _134
REMARK   60  A    between atoms: _136  and  _138
REMARK   61  A    between atoms: _138  and  _139
REMARK   62  A    between atoms: _141  and  _143
REMARK   63  A    between atoms: _143  and  _144
REMARK   64  A    between atoms: _143  and  _146
REMARK   65  A    between atoms: _146  and  _147
REMARK   66  A    between atoms: _150  and  _152
REMARK   67  A    between atoms: _152  and  _153
REMARK   68  A    between atoms: _155  and  _157
REMARK   69  A    between atoms: _157  and  _158
REMARK   70  A    between atoms: _160  and  _162
REMARK   71  A    between atoms: _162  and  _163
REMARK   72  A    between atoms: _162  and  _165
REMARK   73  A    between atoms: _165  and  _166
REMARK   74  A    between atoms: _172  and  _174
REMARK   75  A    between atoms: _174  and  _175
REMARK   76  A    between atoms: _174  and  _177
REMARK   77  A    between atoms: _177  and  _178
REMARK   78  A    between atoms: _181  and  _183
REMARK   79  A    between atoms: _183  and  _184
REMARK   80  A    between atoms: _183  and  _186
REMARK   81  A    between atoms: _189  and  _191
REMARK   82  A    between atoms: _191  and  _192
REMARK   83  A    between atoms: _191  and  _194
REMARK   84  A    between atoms: _197  and  _199
REMARK   85  A    between atoms: _199  and  _200
REMARK   86  A    between atoms: _199  and  _202
REMARK   87  A    between atoms: _202  and  _203
REMARK   88  A    between atoms: _207  and  _208
REMARK   89  A    between atoms: _213  and  _215
REMARK   90  A    between atoms: _215  and  _216
REMARK   91  A    between atoms: _215  and  _218
REMARK   92  A    between atoms: _221  and  _223
REMARK   93  A    between atoms: _223  and  _224
REMARK   94  A    between atoms: _223  and  _226
REMARK   95  A    between atoms: _226  and  _227
REMARK   96  A    between atoms: _232  and  _234
REMARK   97  A    between atoms: _234  and  _235
REMARK   98  A    between atoms: _234  and  _237
REMARK   99  A    between atoms: _237  and  _238
REMARK  100  A    between atoms: _241  and  _243
REMARK  101  A    between atoms: _243  and  _244
REMARK  102  A    between atoms: _243  and  _246
REMARK  103  A    between atoms: _246  and  _247
REMARK  104  A    between atoms: _250  and  _252
REMARK  105  A    between atoms: _252  and  _253
REMARK  106  A    between atoms: _255  and  _257
REMARK  107  A    between atoms: _257  and  _258
REMARK  108  A    between atoms: _257  and  _260
REMARK  109  A    between atoms: _260  and  _261
REMARK  110  A    between atoms: _261  and  _262
REMARK  111  A    between atoms: _262  and  _263
REMARK  112  A    between atoms: _272  and  _274
REMARK  113  A    between atoms: _274  and  _275
REMARK  114  A    between atoms: _274  and  _277
REMARK  115  A    between atoms: _277  and  _278
REMARK  116  A    between atoms: _283  and  _285
REMARK  117  A    between atoms: _285  and  _286
REMARK  118  A    between atoms: _285  and  _288
REMARK  119  A    between atoms: _288  and  _289
REMARK  120  A    between atoms: _289  and  _290
REMARK  121  A    between atoms: _290  and  _291
REMARK  122  A    between atoms: _300  and  _302
REMARK  123  A    between atoms: _302  and  _303
REMARK  124  A    between atoms: _302  and  _305
REMARK  125  A    between atoms: _305  and  _306
REMARK  126  A    between atoms: _309  and  _311
REMARK  127  A    between atoms: _311  and  _312
REMARK  128  A    between atoms: _311  and  _314
REMARK  129  A    between atoms: _314  and  _315
REMARK  130  A    between atoms: _318  and  _320
REMARK  131  A    between atoms: _320  and  _321
REMARK  132  A    between atoms: _320  and  _323
REMARK  133  A    between atoms: _323  and  _324
REMARK  134  A    between atoms: _327  and  _329
REMARK  135  A    between atoms: _329  and  _330
REMARK  136  A    between atoms: _329  and  _332
REMARK  137  A    between atoms: _332  and  _333
REMARK  138  A    between atoms: _336  and  _338
REMARK  139  A    between atoms: _338  and  _339
REMARK  140  A    between atoms: _341  and  _343
REMARK  141  A    between atoms: _343  and  _344
REMARK  142  A    between atoms: _347  and  _349
REMARK  143  A    between atoms: _349  and  _350
REMARK  144  A    between atoms: _349  and  _352
REMARK  145  A    between atoms: _352  and  _353
REMARK  146  A    between atoms: _356  and  _358
REMARK  147  A    between atoms: _358  and  _359
REMARK  148  A    between atoms: _358  and  _361
REMARK  149  A    between atoms: _361  and  _362
REMARK  150  A    between atoms: _365  and  _367
REMARK  151  A    between atoms: _367  and  _368
REMARK  152  A    between atoms: _367  and  _370
REMARK  153  A    between atoms: _370  and  _371
REMARK  154  A    between atoms: _374  and  _376
REMARK  155  A    between atoms: _376  and  _377
REMARK  156  A    between atoms: _376  and  _379
REMARK  157  A    between atoms: _382  and  _384
REMARK  158  A    between atoms: _384  and  _385
REMARK  159  A    between atoms: _384  and  _387
REMARK  160  A    between atoms: _387  and  _388
REMARK  161  A    between atoms: _388  and  _389
REMARK  162  A    between atoms: _389  and  _390
REMARK  163  A    between atoms: _390  and  _391
REMARK  164  A    between atoms: _395  and  _397
REMARK  165  A    between atoms: _397  and  _398
REMARK  166  A    between atoms: _397  and  _400
REMARK  167  A    between atoms: _400  and  _401
REMARK  168  A    between atoms: _401  and  _402
REMARK  169  A    between atoms: _404  and  _406
REMARK  170  A    between atoms: _406  and  _407
REMARK  171  A    between atoms: _406  and  _409
REMARK  172  A    between atoms: _409  and  _410
REMARK  173  A    between atoms: _413  and  _415
REMARK  174  A    between atoms: _415  and  _416
REMARK  175  A    between atoms: _418  and  _420
REMARK  176  A    between atoms: _420  and  _421
REMARK  177  A    between atoms: _423  and  _425
REMARK  178  A    between atoms: _425  and  _426
REMARK  179  A    between atoms: _425  and  _428
REMARK  180  A    between atoms: _428  and  _429
REMARK  181  A    between atoms: _432  and  _434
REMARK  182  A    between atoms: _434  and  _435
REMARK  183  A    between atoms: _437  and  _439
REMARK  184  A    between atoms: _439  and  _440
REMARK  185  A    between atoms: _442  and  _444
REMARK  186  A    between atoms: _444  and  _445
REMARK  187  A    between atoms: _444  and  _447
REMARK  188  A    between atoms: _447  and  _448
REMARK  189  A    between atoms: _454  and  _456
REMARK  190  A    between atoms: _456  and  _457
REMARK  191  A    between atoms: _456  and  _459
REMARK  192  A    between atoms: _459  and  _460
REMARK  193  A    between atoms: _463  and  _465
REMARK  194  A    between atoms: _465  and  _466
REMARK  195  A    between atoms: _465  and  _468
REMARK  196  A    between atoms: _471  and  _473
REMARK  197  A    between atoms: _473  and  _474
REMARK  198  A    between atoms: _473  and  _476
REMARK  199  A    between atoms: _479  and  _481
REMARK  200  A    between atoms: _481  and  _482
REMARK  201  A    between atoms: _481  and  _484
REMARK  202  A    between atoms: _484  and  _485
REMARK  203  A    between atoms: _489  and  _490
REMARK  204  A    between atoms: _495  and  _497
REMARK  205  A    between atoms: _497  and  _498
REMARK  206  A    between atoms: _497  and  _500
REMARK  207  A    between atoms: _503  and  _505
REMARK  208  A    between atoms: _505  and  _506
REMARK  209  A    between atoms: _505  and  _508
REMARK  210  A    between atoms: _508  and  _509
REMARK  211  A    between atoms: _514  and  _516
REMARK  212  A    between atoms: _516  and  _517
REMARK  213  A    between atoms: _516  and  _519
REMARK  214  A    between atoms: _519  and  _520
REMARK  215  A    between atoms: _523  and  _525
REMARK  216  A    between atoms: _525  and  _526
REMARK  217  A    between atoms: _525  and  _528
REMARK  218  A    between atoms: _528  and  _529
REMARK  219  A    between atoms: _532  and  _534
REMARK  220  A    between atoms: _534  and  _535
REMARK  221  A    between atoms: _537  and  _539
REMARK  222  A    between atoms: _539  and  _540
REMARK  223  A    between atoms: _539  and  _542
REMARK  224  A    between atoms: _542  and  _543
REMARK  225  A    between atoms: _543  and  _544
REMARK  226  A    between atoms: _544  and  _545
REMARK  227  A    between atoms: _554  and  _556
REMARK  228  A    between atoms: _556  and  _557
REMARK  229  A    between atoms: _556  and  _559
REMARK  230  A    between atoms: _559  and  _560
REMARK                            x       y       z     vdW  Elec       q    Type
REMARK                         _______ _______ _______ _____ _____    ______ ____
ROOT
ATOM      1  O   HOH     1       9.012  14.219  21.243  0.00  0.00    +0.000 OA
ENDROOT
TORSDOF 0
REMARK  Name = ../refined-set-2016/3pwm/3pwm_pocket.pdb
REMARK  230 active torsions:
REMARK  status: ('A' for Active; 'I' for Inactive)
REMARK    1  A    between atoms: _1  and  _3
REMARK    2  A    between atoms: _3  and  _4
REMARK    3  A    between atoms: _3  and  _6
REMARK    4  A    between atoms: _6  and  _7
REMARK    5  A    between atoms: _7  and  _8
REMARK    6  A    between atoms: _8  and  _9
REMARK    7  A    between atoms: _18  and  _20
REMARK    8  A    between atoms: _20  and  _21
REMARK    9  A    between atoms: _20  and  _23
REMARK   10  A    between atoms: _23  and  _24
REMARK   11  A    between atoms: _27  and  _29
REMARK   12  A    between atoms: _29  and  _30
REMARK   13  A    between atoms: _29  and  _32
REMARK   14  A    between atoms: _32  and  _33
REMARK   15  A    between atoms: _36  and  _38
REMARK   16  A    between atoms: _38  and  _39
REMARK   17  A    between atoms: _38  and  _41
REMARK   18  A    between atoms: _41  and  _42
REMARK   19  A    between atoms: _45  and  _47
REMARK   20  A    between atoms: _47  and  _48
REMARK   21  A    between atoms: _47  and  _50
REMARK   22  A    between atoms: _50  and  _51
REMARK   23  A    between atoms: _54  and  _56
REMARK   24  A    between atoms: _56  and  _57
REMARK   25  A    between atoms: _59  and  _61
REMARK   26  A    between atoms: _61  and  _62
REMARK   27  A    between atoms: _65  and  _67
REMARK   28  A    between atoms: _67  and  _68
REMARK   29  A    between atoms: _67  and  _70
REMARK   30  A    between atoms: _70  and  _71
REMARK   31  A    between atoms: _74  and  _76
REMARK   32  A    between atoms: _76  and  _77
REMARK   33  A    between atoms: _76  and  _79
REMARK   34  A    between atoms: _79  and  _80
REMARK   35  A    between atoms: _83  and  _85
REMARK   36  A    between atoms: _85  and  _86
REMARK   37  A    between atoms: _85  and  _88
REMARK   38  A    between atoms: _88  and  _89
REMARK   39  A    between atoms: _92  and  _94
REMARK   40  A    between atoms: _94  and  _95
REMARK   41  A    between atoms: _94  and  _97
REMARK   42  A    between atoms: _100  and  _102
REMARK   43  A    between atoms: _102  and  _103
REMARK   44  A    between atoms: _102  and  _105
REMARK   45  A    between atoms: _105  and  _106
REMARK   46  A    between atoms: _106  and  _107
REMARK   47  A    between atoms: _107  and  _108
REMARK   48  A    between atoms: _108  and  _109
REMARK   49  A    between atoms: _113  and  _115
REMARK   50  A    between atoms: _115  and  _116
REMARK   51  A    between atoms: _115  and  _118
REMARK   52  A    between atoms: _118  and  _119
REMARK   53  A    between atoms: _119  and  _120
REMARK   54  A    between atoms: _122  and  _124
REMARK   55  A    between atoms: _124  and  _125
REMARK   56  A    between atoms: _124  and  _127
REMARK   57  A    between atoms: _127  and  _128
REMARK   58  A    between atoms: _131  and  _133
REMARK   59  A    between atoms: _133  and  _134
REMARK   60  A    between atoms: _136  and  _138
REMARK   61  A    between atoms: _138  and  _139
REMARK   62  A    between atoms: _141  and  _143
REMARK   63  A    between atoms: _143  and  _144
REMARK   64  A    between atoms: _143  and  _146
REMARK   65  A    between atoms: _146  and  _147
REMARK   66  A    between atoms: _150  and  _152
REMARK   67  A    between atoms: _152  and  _153
REMARK   68  A    between atoms: _155  and  _157
REMARK   69  A    between atoms: _157  and  _158
REMARK   70  A    between atoms: _160  and  _162
REMARK   71  A    between atoms: _162  and  _163
REMARK   72  A    between atoms: _162  and  _165
REMARK   73  A    between atoms: _165  and  _166
REMARK   74  A    between atoms: _172  and  _174
REMARK   75  A    between atoms: _174  and  _175
REMARK   76  A    between atoms: _174  and  _177
REMARK   77  A    between atoms: _177  and  _178
REMARK   78  A    between atoms: _181  and  _183
REMARK   79  A    between atoms: _183  and  _184
REMARK   80  A    between atoms: _183  and  _186
REMARK   81  A    between atoms: _189  and  _191
REMARK   82  A    between atoms: _191  and  _192
REMARK   83  A    between atoms: _191  and  _194
REMARK   84  A    between atoms: _197  and  _199
REMARK   85  A    between atoms: _199  and  _200
REMARK   86  A    between atoms: _199  and  _202
REMARK   87  A    between atoms: _202  and  _203
REMARK   88  A    between atoms: _207  and  _208
REMARK   89  A    between atoms: _213  and  _215
REMARK   90  A    between atoms: _215  and  _216
REMARK   91  A    between atoms: _215  and  _218
REMARK   92  A    between atoms: _221  and  _223
REMARK   93  A    between atoms: _223  and  _224
REMARK   94  A    between atoms: _223  and  _226
REMARK   95  A    between atoms: _226  and  _227
REMARK   96  A    between atoms: _232  and  _234
REMARK   97  A    between atoms: _234  and  _235
REMARK   98  A    between atoms: _234  and  _237
REMARK   99  A    between atoms: _237  and  _238
REMARK  100  A    between atoms: _241  and  _243
REMARK  101  A    between atoms: _243  and  _244
REMARK  102  A    between atoms: _243  and  _246
REMARK  103  A    between atoms: _246  and  _247
REMARK  104  A    between atoms: _250  and  _252
REMARK  105  A    between atoms: _252  and  _253
REMARK  106  A    between atoms: _255  and  _257
REMARK  107  A    between atoms: _257  and  _258
REMARK  108  A    between atoms: _257  and  _260
REMARK  109  A    between atoms: _260  and  _261
REMARK  110  A    between atoms: _261  and  _262
REMARK  111  A    between atoms: _262  and  _263
REMARK  112  A    between atoms: _272  and  _274
REMARK  113  A    between atoms: _274  and  _275
REMARK  114  A    between atoms: _274  and  _277
REMARK  115  A    between atoms: _277  and  _278
REMARK  116  A    between atoms: _283  and  _285
REMARK  117  A    between atoms: _285  and  _286
REMARK  118  A    between atoms: _285  and  _288
REMARK  119  A    between atoms: _288  and  _289
REMARK  120  A    between atoms: _289  and  _290
REMARK  121  A    between atoms: _290  and  _291
REMARK  122  A    between atoms: _300  and  _302
REMARK  123  A    between atoms: _302  and  _303
REMARK  124  A    between atoms: _302  and  _305
REMARK  125  A    between atoms: _305  and  _306
REMARK  126  A    between atoms: _309  and  _311
REMARK  127  A    between atoms: _311  and  _312
REMARK  128  A    between atoms: _311  and  _314
REMARK  129  A    between atoms: _314  and  _315
REMARK  130  A    between atoms: _318  and  _320
REMARK  131  A    between atoms: _320  and  _321
REMARK  132  A    between atoms: _320  and  _323
REMARK  133  A    between atoms: _323  and  _324
REMARK  134  A    between atoms: _327  and  _329
REMARK  135  A    between atoms: _329  and  _330
REMARK  136  A    between atoms: _329  and  _332
REMARK  137  A    between atoms: _332  and  _333
REMARK  138  A    between atoms: _336  and  _338
REMARK  139  A    between atoms: _338  and  _339
REMARK  140  A    between atoms: _341  and  _343
REMARK  141  A    between atoms: _343  and  _344
REMARK  142  A    between atoms: _347  and  _349
REMARK  143  A    between atoms: _349  and  _350
REMARK  144  A    between atoms: _349  and  _352
REMARK  145  A    between atoms: _352  and  _353
REMARK  146  A    between atoms: _356  and  _358
REMARK  147  A    between atoms: _358  and  _359
REMARK  148  A    between atoms: _358  and  _361
REMARK  149  A    between atoms: _361  and  _362
REMARK  150  A    between atoms: _365  and  _367
REMARK  151  A    between atoms: _367  and  _368
REMARK  152  A    between atoms: _367  and  _370
REMARK  153  A    between atoms: _370  and  _371
REMARK  154  A    between atoms: _374  and  _376
REMARK  155  A    between atoms: _376  and  _377
REMARK  156  A    between atoms: _376  and  _379
REMARK  157  A    between atoms: _382  and  _384
REMARK  158  A    between atoms: _384  and  _385
REMARK  159  A    between atoms: _384  and  _387
REMARK  160  A    between atoms: _387  and  _388
REMARK  161  A    between atoms: _388  and  _389
REMARK  162  A    between atoms: _389  and  _390
REMARK  163  A    between atoms: _390  and  _391
REMARK  164  A    between atoms: _395  and  _397
REMARK  165  A    between atoms: _397  and  _398
REMARK  166  A    between atoms: _397  and  _400
REMARK  167  A    between atoms: _400  and  _401
REMARK  168  A    between atoms: _401  and  _402
REMARK  169  A    between atoms: _404  and  _406
REMARK  170  A    between atoms: _406  and  _407
REMARK  171  A    between atoms: _406  and  _409
REMARK  172  A    between atoms: _409  and  _410
REMARK  173  A    between atoms: _413  and  _415
REMARK  174  A    between atoms: _415  and  _416
REMARK  175  A    between atoms: _418  and  _420
REMARK  176  A    between atoms: _420  and  _421
REMARK  177  A    between atoms: _423  and  _425
REMARK  178  A    between atoms: _425  and  _426
REMARK  179  A    between atoms: _425  and  _428
REMARK  180  A    between atoms: _428  and  _429
REMARK  181  A    between atoms: _432  and  _434
REMARK  182  A    between atoms: _434  and  _435
REMARK  183  A    between atoms: _437  and  _439
REMARK  184  A    between atoms: _439  and  _440
REMARK  185  A    between atoms: _442  and  _444
REMARK  186  A    between atoms: _444  and  _445
REMARK  187  A    between atoms: _444  and  _447
REMARK  188  A    between atoms: _447  and  _448
REMARK  189  A    between atoms: _454  and  _456
REMARK  190  A    between atoms: _456  and  _457
REMARK  191  A    between atoms: _456  and  _459
REMARK  192  A    between atoms: _459  and  _460
REMARK  193  A    between atoms: _463  and  _465
REMARK  194  A    between atoms: _465  and  _466
REMARK  195  A    between atoms: _465  and  _468
REMARK  196  A    between atoms: _471  and  _473
REMARK  197  A    between atoms: _473  and  _474
REMARK  198  A    between atoms: _473  and  _476
REMARK  199  A    between atoms: _479  and  _481
REMARK  200  A    between atoms: _481  and  _482
REMARK  201  A    between atoms: _481  and  _484
REMARK  202  A    between atoms: _484  and  _485
REMARK  203  A    between atoms: _489  and  _490
REMARK  204  A    between atoms: _495  and  _497
REMARK  205  A    between atoms: _497  and  _498
REMARK  206  A    between atoms: _497  and  _500
REMARK  207  A    between atoms: _503  and  _505
REMARK  208  A    between atoms: _505  and  _506
REMARK  209  A    between atoms: _505  and  _508
REMARK  210  A    between atoms: _508  and  _509
REMARK  211  A    between atoms: _514  and  _516
REMARK  212  A    between atoms: _516  and  _517
REMARK  213  A    between atoms: _516  and  _519
REMARK  214  A    between atoms: _519  and  _520
REMARK  215  A    between atoms: _523  and  _525
REMARK  216  A    between atoms: _525  and  _526
REMARK  217  A    between atoms: _525  and  _528
REMARK  218  A    between atoms: _528  and  _529
REMARK  219  A    between atoms: _532  and  _534
REMARK  220  A    between atoms: _534  and  _535
REMARK  221  A    between atoms: _537  and  _539
REMARK  222  A    between atoms: _539  and  _540
REMARK  223  A    between atoms: _539  and  _542
REMARK  224  A    between atoms: _542  and  _543
REMARK  225  A    between atoms: _543  and  _544
REMARK  226  A    between atoms: _544  and  _545
REMARK  227  A    between atoms: _554  and  _556
REMARK  228  A    between atoms: _556  and  _557
REMARK  229  A    between atoms: _556  and  _559
REMARK  230  A    between atoms: _559  and  _560
REMARK                            x       y       z     vdW  Elec       q    Type
REMARK                         _______ _______ _______ _____ _____    ______ ____
ROOT
ATOM      1  O   HOH     1       7.971   7.385  17.600  0.00  0.00    +0.000 OA
ENDROOT
TORSDOF 0
REMARK  Name = ../refined-set-2016/3pwm/3pwm_pocket.pdb
REMARK  230 active torsions:
REMARK  status: ('A' for Active; 'I' for Inactive)
REMARK    1  A    between atoms: _1  and  _3
REMARK    2  A    between atoms: _3  and  _4
REMARK    3  A    between atoms: _3  and  _6
REMARK    4  A    between atoms: _6  and  _7
REMARK    5  A    between atoms: _7  and  _8
REMARK    6  A    between atoms: _8  and  _9
REMARK    7  A    between atoms: _18  and  _20
REMARK    8  A    between atoms: _20  and  _21
REMARK    9  A    between atoms: _20  and  _23
REMARK   10  A    between atoms: _23  and  _24
REMARK   11  A    between atoms: _27  and  _29
REMARK   12  A    between atoms: _29  and  _30
REMARK   13  A    between atoms: _29  and  _32
REMARK   14  A    between atoms: _32  and  _33
REMARK   15  A    between atoms: _36  and  _38
REMARK   16  A    between atoms: _38  and  _39
REMARK   17  A    between atoms: _38  and  _41
REMARK   18  A    between atoms: _41  and  _42
REMARK   19  A    between atoms: _45  and  _47
REMARK   20  A    between atoms: _47  and  _48
REMARK   21  A    between atoms: _47  and  _50
REMARK   22  A    between atoms: _50  and  _51
REMARK   23  A    between atoms: _54  and  _56
REMARK   24  A    between atoms: _56  and  _57
REMARK   25  A    between atoms: _59  and  _61
REMARK   26  A    between atoms: _61  and  _62
REMARK   27  A    between atoms: _65  and  _67
REMARK   28  A    between atoms: _67  and  _68
REMARK   29  A    between atoms: _67  and  _70
REMARK   30  A    between atoms: _70  and  _71
REMARK   31  A    between atoms: _74  and  _76
REMARK   32  A    between atoms: _76  and  _77
REMARK   33  A    between atoms: _76  and  _79
REMARK   34  A    between atoms: _79  and  _80
REMARK   35  A    between atoms: _83  and  _85
REMARK   36  A    between atoms: _85  and  _86
REMARK   37  A    between atoms: _85  and  _88
REMARK   38  A    between atoms: _88  and  _89
REMARK   39  A    between atoms: _92  and  _94
REMARK   40  A    between atoms: _94  and  _95
REMARK   41  A    between atoms: _94  and  _97
REMARK   42  A    between atoms: _100  and  _102
REMARK   43  A    between atoms: _102  and  _103
REMARK   44  A    between atoms: _102  and  _105
REMARK   45  A    between atoms: _105  and  _106
REMARK   46  A    between atoms: _106  and  _107
REMARK   47  A    between atoms: _107  and  _108
REMARK   48  A    between atoms: _108  and  _109
REMARK   49  A    between atoms: _113  and  _115
REMARK   50  A    between atoms: _115  and  _116
REMARK   51  A    between atoms: _115  and  _118
REMARK   52  A    between atoms: _118  and  _119
REMARK   53  A    between atoms: _119  and  _120
REMARK   54  A    between atoms: _122  and  _124
REMARK   55  A    between atoms: _124  and  _125
REMARK   56  A    between atoms: _124  and  _127
REMARK   57  A    between atoms: _127  and  _128
REMARK   58  A    between atoms: _131  and  _133
REMARK   59  A    between atoms: _133  and  _134
REMARK   60  A    between atoms: _136  and  _138
REMARK   61  A    between atoms: _138  and  _139
REMARK   62  A    between atoms: _141  and  _143
REMARK   63  A    between atoms: _143  and  _144
REMARK   64  A    between atoms: _143  and  _146
REMARK   65  A    between atoms: _146  and  _147
REMARK   66  A    between atoms: _150  and  _152
REMARK   67  A    between atoms: _152  and  _153
REMARK   68  A    between atoms: _155  and  _157
REMARK   69  A    between atoms: _157  and  _158
REMARK   70  A    between atoms: _160  and  _162
REMARK   71  A    between atoms: _162  and  _163
REMARK   72  A    between atoms: _162  and  _165
REMARK   73  A    between atoms: _165  and  _166
REMARK   74  A    between atoms: _172  and  _174
REMARK   75  A    between atoms: _174  and  _175
REMARK   76  A    between atoms: _174  and  _177
REMARK   77  A    between atoms: _177  and  _178
REMARK   78  A    between atoms: _181  and  _183
REMARK   79  A    between atoms: _183  and  _184
REMARK   80  A    between atoms: _183  and  _186
REMARK   81  A    between atoms: _189  and  _191
REMARK   82  A    between atoms: _191  and  _192
REMARK   83  A    between atoms: _191  and  _194
REMARK   84  A    between atoms: _197  and  _199
REMARK   85  A    between atoms: _199  and  _200
REMARK   86  A    between atoms: _199  and  _202
REMARK   87  A    between atoms: _202  and  _203
REMARK   88  A    between atoms: _207  and  _208
REMARK   89  A    between atoms: _213  and  _215
REMARK   90  A    between atoms: _215  and  _216
REMARK   91  A    between atoms: _215  and  _218
REMARK   92  A    between atoms: _221  and  _223
REMARK   93  A    between atoms: _223  and  _224
REMARK   94  A    between atoms: _223  and  _226
REMARK   95  A    between atoms: _226  and  _227
REMARK   96  A    between atoms: _232  and  _234
REMARK   97  A    between atoms: _234  and  _235
REMARK   98  A    between atoms: _234  and  _237
REMARK   99  A    between atoms: _237  and  _238
REMARK  100  A    between atoms: _241  and  _243
REMARK  101  A    between atoms: _243  and  _244
REMARK  102  A    between atoms: _243  and  _246
REMARK  103  A    between atoms: _246  and  _247
REMARK  104  A    between atoms: _250  and  _252
REMARK  105  A    between atoms: _252  and  _253
REMARK  106  A    between atoms: _255  and  _257
REMARK  107  A    between atoms: _257  and  _258
REMARK  108  A    between atoms: _257  and  _260
REMARK  109  A    between atoms: _260  and  _261
REMARK  110  A    between atoms: _261  and  _262
REMARK  111  A    between atoms: _262  and  _263
REMARK  112  A    between atoms: _272  and  _274
REMARK  113  A    between atoms: _274  and  _275
REMARK  114  A    between atoms: _274  and  _277
REMARK  115  A    between atoms: _277  and  _278
REMARK  116  A    between atoms: _283  and  _285
REMARK  117  A    between atoms: _285  and  _286
REMARK  118  A    between atoms: _285  and  _288
REMARK  119  A    between atoms: _288  and  _289
REMARK  120  A    between atoms: _289  and  _290
REMARK  121  A    between atoms: _290  and  _291
REMARK  122  A    between atoms: _300  and  _302
REMARK  123  A    between atoms: _302  and  _303
REMARK  124  A    between atoms: _302  and  _305
REMARK  125  A    between atoms: _305  and  _306
REMARK  126  A    between atoms: _309  and  _311
REMARK  127  A    between atoms: _311  and  _312
REMARK  128  A    between atoms: _311  and  _314
REMARK  129  A    between atoms: _314  and  _315
REMARK  130  A    between atoms: _318  and  _320
REMARK  131  A    between atoms: _320  and  _321
REMARK  132  A    between atoms: _320  and  _323
REMARK  133  A    between atoms: _323  and  _324
REMARK  134  A    between atoms: _327  and  _329
REMARK  135  A    between atoms: _329  and  _330
REMARK  136  A    between atoms: _329  and  _332
REMARK  137  A    between atoms: _332  and  _333
REMARK  138  A    between atoms: _336  and  _338
REMARK  139  A    between atoms: _338  and  _339
REMARK  140  A    between atoms: _341  and  _343
REMARK  141  A    between atoms: _343  and  _344
REMARK  142  A    between atoms: _347  and  _349
REMARK  143  A    between atoms: _349  and  _350
REMARK  144  A    between atoms: _349  and  _352
REMARK  145  A    between atoms: _352  and  _353
REMARK  146  A    between atoms: _356  and  _358
REMARK  147  A    between atoms: _358  and  _359
REMARK  148  A    between atoms: _358  and  _361
REMARK  149  A    between atoms: _361  and  _362
REMARK  150  A    between atoms: _365  and  _367
REMARK  151  A    between atoms: _367  and  _368
REMARK  152  A    between atoms: _367  and  _370
REMARK  153  A    between atoms: _370  and  _371
REMARK  154  A    between atoms: _374  and  _376
REMARK  155  A    between atoms: _376  and  _377
REMARK  156  A    between atoms: _376  and  _379
REMARK  157  A    between atoms: _382  and  _384
REMARK  158  A    between atoms: _384  and  _385
REMARK  159  A    between atoms: _384  and  _387
REMARK  160  A    between atoms: _387  and  _388
REMARK  161  A    between atoms: _388  and  _389
REMARK  162  A    between atoms: _389  and  _390
REMARK  163  A    between atoms: _390  and  _391
REMARK  164  A    between atoms: _395  and  _397
REMARK  165  A    between atoms: _397  and  _398
REMARK  166  A    between atoms: _397  and  _400
REMARK  167  A    between atoms: _400  and  _401
REMARK  168  A    between atoms: _401  and  _402
REMARK  169  A    between atoms: _404  and  _406
REMARK  170  A    between atoms: _406  and  _407
REMARK  171  A    between atoms: _406  and  _409
REMARK  172  A    between atoms: _409  and  _410
REMARK  173  A    between atoms: _413  and  _415
REMARK  174  A    between atoms: _415  and  _416
REMARK  175  A    between atoms: _418  and  _420
REMARK  176  A    between atoms: _420  and  _421
REMARK  177  A    between atoms: _423  and  _425
REMARK  178  A    between atoms: _425  and  _426
REMARK  179  A    between atoms: _425  and  _428
REMARK  180  A    between atoms: _428  and  _429
REMARK  181  A    between atoms: _432  and  _434
REMARK  182  A    between atoms: _434  and  _435
REMARK  183  A    between atoms: _437  and  _439
REMARK  184  A    between atoms: _439  and  _440
REMARK  185  A    between atoms: _442  and  _444
REMARK  186  A    between atoms: _444  and  _445
REMARK  187  A    between atoms: _444  and  _447
REMARK  188  A    between atoms: _447  and  _448
REMARK  189  A    between atoms: _454  and  _456
REMARK  190  A    between atoms: _456  and  _457
REMARK  191  A    between atoms: _456  and  _459
REMARK  192  A    between atoms: _459  and  _460
REMARK  193  A    between atoms: _463  and  _465
REMARK  194  A    between atoms: _465  and  _466
REMARK  195  A    between atoms: _465  and  _468
REMARK  196  A    between atoms: _471  and  _473
REMARK  197  A    between atoms: _473  and  _474
REMARK  198  A    between atoms: _473  and  _476
REMARK  199  A    between atoms: _479  and  _481
REMARK  200  A    between atoms: _481  and  _482
REMARK  201  A    between atoms: _481  and  _484
REMARK  202  A    between atoms: _484  and  _485
REMARK  203  A    between atoms: _489  and  _490
REMARK  204  A    between atoms: _495  and  _497
REMARK  205  A    between atoms: _497  and  _498
REMARK  206  A    between atoms: _497  and  _500
REMARK  207  A    between atoms: _503  and  _505
REMARK  208  A    between atoms: _505  and  _506
REMARK  209  A    between atoms: _505  and  _508
REMARK  210  A    between atoms: _508  and  _509
REMARK  211  A    between atoms: _514  and  _516
REMARK  212  A    between atoms: _516  and  _517
REMARK  213  A    between atoms: _516  and  _519
REMARK  214  A    between atoms: _519  and  _520
REMARK  215  A    between atoms: _523  and  _525
REMARK  216  A    between atoms: _525  and  _526
REMARK  217  A    between atoms: _525  and  _528
REMARK  218  A    between atoms: _528  and  _529
REMARK  219  A    between atoms: _532  and  _534
REMARK  220  A    between atoms: _534  and  _535
REMARK  221  A    between atoms: _537  and  _539
REMARK  222  A    between atoms: _539  and  _540
REMARK  223  A    between atoms: _539  and  _542
REMARK  224  A    between atoms: _542  and  _543
REMARK  225  A    between atoms: _543  and  _544
REMARK  226  A    between atoms: _544  and  _545
REMARK  227  A    between atoms: _554  and  _556
REMARK  228  A    between atoms: _556  and  _557
REMARK  229  A    between atoms: _556  and  _559
REMARK  230  A    between atoms: _559  and  _560
REMARK                            x       y       z     vdW  Elec       q    Type
REMARK                         _______ _______ _______ _____ _____    ______ ____
ROOT
ATOM      1  O   HOH     1       3.509  16.644  15.835  0.00  0.00    +0.000 OA
ENDROOT
TORSDOF 0
REMARK  Name = ../refined-set-2016/3pwm/3pwm_pocket.pdb
REMARK  230 active torsions:
REMARK  status: ('A' for Active; 'I' for Inactive)
REMARK    1  A    between atoms: _1  and  _3
REMARK    2  A    between atoms: _3  and  _4
REMARK    3  A    between atoms: _3  and  _6
REMARK    4  A    between atoms: _6  and  _7
REMARK    5  A    between atoms: _7  and  _8
REMARK    6  A    between atoms: _8  and  _9
REMARK    7  A    between atoms: _18  and  _20
REMARK    8  A    between atoms: _20  and  _21
REMARK    9  A    between atoms: _20  and  _23
REMARK   10  A    between atoms: _23  and  _24
REMARK   11  A    between atoms: _27  and  _29
REMARK   12  A    between atoms: _29  and  _30
REMARK   13  A    between atoms: _29  and  _32
REMARK   14  A    between atoms: _32  and  _33
REMARK   15  A    between atoms: _36  and  _38
REMARK   16  A    between atoms: _38  and  _39
REMARK   17  A    between atoms: _38  and  _41
REMARK   18  A    between atoms: _41  and  _42
REMARK   19  A    between atoms: _45  and  _47
REMARK   20  A    between atoms: _47  and  _48
REMARK   21  A    between atoms: _47  and  _50
REMARK   22  A    between atoms: _50  and  _51
REMARK   23  A    between atoms: _54  and  _56
REMARK   24  A    between atoms: _56  and  _57
REMARK   25  A    between atoms: _59  and  _61
REMARK   26  A    between atoms: _61  and  _62
REMARK   27  A    between atoms: _65  and  _67
REMARK   28  A    between atoms: _67  and  _68
REMARK   29  A    between atoms: _67  and  _70
REMARK   30  A    between atoms: _70  and  _71
REMARK   31  A    between atoms: _74  and  _76
REMARK   32  A    between atoms: _76  and  _77
REMARK   33  A    between atoms: _76  and  _79
REMARK   34  A    between atoms: _79  and  _80
REMARK   35  A    between atoms: _83  and  _85
REMARK   36  A    between atoms: _85  and  _86
REMARK   37  A    between atoms: _85  and  _88
REMARK   38  A    between atoms: _88  and  _89
REMARK   39  A    between atoms: _92  and  _94
REMARK   40  A    between atoms: _94  and  _95
REMARK   41  A    between atoms: _94  and  _97
REMARK   42  A    between atoms: _100  and  _102
REMARK   43  A    between atoms: _102  and  _103
REMARK   44  A    between atoms: _102  and  _105
REMARK   45  A    between atoms: _105  and  _106
REMARK   46  A    between atoms: _106  and  _107
REMARK   47  A    between atoms: _107  and  _108
REMARK   48  A    between atoms: _108  and  _109
REMARK   49  A    between atoms: _113  and  _115
REMARK   50  A    between atoms: _115  and  _116
REMARK   51  A    between atoms: _115  and  _118
REMARK   52  A    between atoms: _118  and  _119
REMARK   53  A    between atoms: _119  and  _120
REMARK   54  A    between atoms: _122  and  _124
REMARK   55  A    between atoms: _124  and  _125
REMARK   56  A    between atoms: _124  and  _127
REMARK   57  A    between atoms: _127  and  _128
REMARK   58  A    between atoms: _131  and  _133
REMARK   59  A    between atoms: _133  and  _134
REMARK   60  A    between atoms: _136  and  _138
REMARK   61  A    between atoms: _138  and  _139
REMARK   62  A    between atoms: _141  and  _143
REMARK   63  A    between atoms: _143  and  _144
REMARK   64  A    between atoms: _143  and  _146
REMARK   65  A    between atoms: _146  and  _147
REMARK   66  A    between atoms: _150  and  _152
REMARK   67  A    between atoms: _152  and  _153
REMARK   68  A    between atoms: _155  and  _157
REMARK   69  A    between atoms: _157  and  _158
REMARK   70  A    between atoms: _160  and  _162
REMARK   71  A    between atoms: _162  and  _163
REMARK   72  A    between atoms: _162  and  _165
REMARK   73  A    between atoms: _165  and  _166
REMARK   74  A    between atoms: _172  and  _174
REMARK   75  A    between atoms: _174  and  _175
REMARK   76  A    between atoms: _174  and  _177
REMARK   77  A    between atoms: _177  and  _178
REMARK   78  A    between atoms: _181  and  _183
REMARK   79  A    between atoms: _183  and  _184
REMARK   80  A    between atoms: _183  and  _186
REMARK   81  A    between atoms: _189  and  _191
REMARK   82  A    between atoms: _191  and  _192
REMARK   83  A    between atoms: _191  and  _194
REMARK   84  A    between atoms: _197  and  _199
REMARK   85  A    between atoms: _199  and  _200
REMARK   86  A    between atoms: _199  and  _202
REMARK   87  A    between atoms: _202  and  _203
REMARK   88  A    between atoms: _207  and  _208
REMARK   89  A    between atoms: _213  and  _215
REMARK   90  A    between atoms: _215  and  _216
REMARK   91  A    between atoms: _215  and  _218
REMARK   92  A    between atoms: _221  and  _223
REMARK   93  A    between atoms: _223  and  _224
REMARK   94  A    between atoms: _223  and  _226
REMARK   95  A    between atoms: _226  and  _227
REMARK   96  A    between atoms: _232  and  _234
REMARK   97  A    between atoms: _234  and  _235
REMARK   98  A    between atoms: _234  and  _237
REMARK   99  A    between atoms: _237  and  _238
REMARK  100  A    between atoms: _241  and  _243
REMARK  101  A    between atoms: _243  and  _244
REMARK  102  A    between atoms: _243  and  _246
REMARK  103  A    between atoms: _246  and  _247
REMARK  104  A    between atoms: _250  and  _252
REMARK  105  A    between atoms: _252  and  _253
REMARK  106  A    between atoms: _255  and  _257
REMARK  107  A    between atoms: _257  and  _258
REMARK  108  A    between atoms: _257  and  _260
REMARK  109  A    between atoms: _260  and  _261
REMARK  110  A    between atoms: _261  and  _262
REMARK  111  A    between atoms: _262  and  _263
REMARK  112  A    between atoms: _272  and  _274
REMARK  113  A    between atoms: _274  and  _275
REMARK  114  A    between atoms: _274  and  _277
REMARK  115  A    between atoms: _277  and  _278
REMARK  116  A    between atoms: _283  and  _285
REMARK  117  A    between atoms: _285  and  _286
REMARK  118  A    between atoms: _285  and  _288
REMARK  119  A    between atoms: _288  and  _289
REMARK  120  A    between atoms: _289  and  _290
REMARK  121  A    between atoms: _290  and  _291
REMARK  122  A    between atoms: _300  and  _302
REMARK  123  A    between atoms: _302  and  _303
REMARK  124  A    between atoms: _302  and  _305
REMARK  125  A    between atoms: _305  and  _306
REMARK  126  A    between atoms: _309  and  _311
REMARK  127  A    between atoms: _311  and  _312
REMARK  128  A    between atoms: _311  and  _314
REMARK  129  A    between atoms: _314  and  _315
REMARK  130  A    between atoms: _318  and  _320
REMARK  131  A    between atoms: _320  and  _321
REMARK  132  A    between atoms: _320  and  _323
REMARK  133  A    between atoms: _323  and  _324
REMARK  134  A    between atoms: _327  and  _329
REMARK  135  A    between atoms: _329  and  _330
REMARK  136  A    between atoms: _329  and  _332
REMARK  137  A    between atoms: _332  and  _333
REMARK  138  A    between atoms: _336  and  _338
REMARK  139  A    between atoms: _338  and  _339
REMARK  140  A    between atoms: _341  and  _343
REMARK  141  A    between atoms: _343  and  _344
REMARK  142  A    between atoms: _347  and  _349
REMARK  143  A    between atoms: _349  and  _350
REMARK  144  A    between atoms: _349  and  _352
REMARK  145  A    between atoms: _352  and  _353
REMARK  146  A    between atoms: _356  and  _358
REMARK  147  A    between atoms: _358  and  _359
REMARK  148  A    between atoms: _358  and  _361
REMARK  149  A    between atoms: _361  and  _362
REMARK  150  A    between atoms: _365  and  _367
REMARK  151  A    between atoms: _367  and  _368
REMARK  152  A    between atoms: _367  and  _370
REMARK  153  A    between atoms: _370  and  _371
REMARK  154  A    between atoms: _374  and  _376
REMARK  155  A    between atoms: _376  and  _377
REMARK  156  A    between atoms: _376  and  _379
REMARK  157  A    between atoms: _382  and  _384
REMARK  158  A    between atoms: _384  and  _385
REMARK  159  A    between atoms: _384  and  _387
REMARK  160  A    between atoms: _387  and  _388
REMARK  161  A    between atoms: _388  and  _389
REMARK  162  A    between atoms: _389  and  _390
REMARK  163  A    between atoms: _390  and  _391
REMARK  164  A    between atoms: _395  and  _397
REMARK  165  A    between atoms: _397  and  _398
REMARK  166  A    between atoms: _397  and  _400
REMARK  167  A    between atoms: _400  and  _401
REMARK  168  A    between atoms: _401  and  _402
REMARK  169  A    between atoms: _404  and  _406
REMARK  170  A    between atoms: _406  and  _407
REMARK  171  A    between atoms: _406  and  _409
REMARK  172  A    between atoms: _409  and  _410
REMARK  173  A    between atoms: _413  and  _415
REMARK  174  A    between atoms: _415  and  _416
REMARK  175  A    between atoms: _418  and  _420
REMARK  176  A    between atoms: _420  and  _421
REMARK  177  A    between atoms: _423  and  _425
REMARK  178  A    between atoms: _425  and  _426
REMARK  179  A    between atoms: _425  and  _428
REMARK  180  A    between atoms: _428  and  _429
REMARK  181  A    between atoms: _432  and  _434
REMARK  182  A    between atoms: _434  and  _435
REMARK  183  A    between atoms: _437  and  _439
REMARK  184  A    between atoms: _439  and  _440
REMARK  185  A    between atoms: _442  and  _444
REMARK  186  A    between atoms: _444  and  _445
REMARK  187  A    between atoms: _444  and  _447
REMARK  188  A    between atoms: _447  and  _448
REMARK  189  A    between atoms: _454  and  _456
REMARK  190  A    between atoms: _456  and  _457
REMARK  191  A    between atoms: _456  and  _459
REMARK  192  A    between atoms: _459  and  _460
REMARK  193  A    between atoms: _463  and  _465
REMARK  194  A    between atoms: _465  and  _466
REMARK  195  A    between atoms: _465  and  _468
REMARK  196  A    between atoms: _471  and  _473
REMARK  197  A    between atoms: _473  and  _474
REMARK  198  A    between atoms: _473  and  _476
REMARK  199  A    between atoms: _479  and  _481
REMARK  200  A    between atoms: _481  and  _482
REMARK  201  A    between atoms: _481  and  _484
REMARK  202  A    between atoms: _484  and  _485
REMARK  203  A    between atoms: _489  and  _490
REMARK  204  A    between atoms: _495  and  _497
REMARK  205  A    between atoms: _497  and  _498
REMARK  206  A    between atoms: _497  and  _500
REMARK  207  A    between atoms: _503  and  _505
REMARK  208  A    between atoms: _505  and  _506
REMARK  209  A    between atoms: _505  and  _508
REMARK  210  A    between atoms: _508  and  _509
REMARK  211  A    between atoms: _514  and  _516
REMARK  212  A    between atoms: _516  and  _517
REMARK  213  A    between atoms: _516  and  _519
REMARK  214  A    between atoms: _519  and  _520
REMARK  215  A    between atoms: _523  and  _525
REMARK  216  A    between atoms: _525  and  _526
REMARK  217  A    between atoms: _525  and  _528
REMARK  218  A    between atoms: _528  and  _529
REMARK  219  A    between atoms: _532  and  _534
REMARK  220  A    between atoms: _534  and  _535
REMARK  221  A    between atoms: _537  and  _539
REMARK  222  A    between atoms: _539  and  _540
REMARK  223  A    between atoms: _539  and  _542
REMARK  224  A    between atoms: _542  and  _543
REMARK  225  A    between atoms: _543  and  _544
REMARK  226  A    between atoms: _544  and  _545
REMARK  227  A    between atoms: _554  and  _556
REMARK  228  A    between atoms: _556  and  _557
REMARK  229  A    between atoms: _556  and  _559
REMARK  230  A    between atoms: _559  and  _560
REMARK                            x       y       z     vdW  Elec       q    Type
REMARK                         _______ _______ _______ _____ _____    ______ ____
ROOT
ATOM      1  O   HOH     1      21.958  19.990   8.668  0.00  0.00    +0.000 OA
ENDROOT
TORSDOF 0
REMARK  Name = ../refined-set-2016/3pwm/3pwm_pocket.pdb
REMARK  230 active torsions:
REMARK  status: ('A' for Active; 'I' for Inactive)
REMARK    1  A    between atoms: _1  and  _3
REMARK    2  A    between atoms: _3  and  _4
REMARK    3  A    between atoms: _3  and  _6
REMARK    4  A    between atoms: _6  and  _7
REMARK    5  A    between atoms: _7  and  _8
REMARK    6  A    between atoms: _8  and  _9
REMARK    7  A    between atoms: _18  and  _20
REMARK    8  A    between atoms: _20  and  _21
REMARK    9  A    between atoms: _20  and  _23
REMARK   10  A    between atoms: _23  and  _24
REMARK   11  A    between atoms: _27  and  _29
REMARK   12  A    between atoms: _29  and  _30
REMARK   13  A    between atoms: _29  and  _32
REMARK   14  A    between atoms: _32  and  _33
REMARK   15  A    between atoms: _36  and  _38
REMARK   16  A    between atoms: _38  and  _39
REMARK   17  A    between atoms: _38  and  _41
REMARK   18  A    between atoms: _41  and  _42
REMARK   19  A    between atoms: _45  and  _47
REMARK   20  A    between atoms: _47  and  _48
REMARK   21  A    between atoms: _47  and  _50
REMARK   22  A    between atoms: _50  and  _51
REMARK   23  A    between atoms: _54  and  _56
REMARK   24  A    between atoms: _56  and  _57
REMARK   25  A    between atoms: _59  and  _61
REMARK   26  A    between atoms: _61  and  _62
REMARK   27  A    between atoms: _65  and  _67
REMARK   28  A    between atoms: _67  and  _68
REMARK   29  A    between atoms: _67  and  _70
REMARK   30  A    between atoms: _70  and  _71
REMARK   31  A    between atoms: _74  and  _76
REMARK   32  A    between atoms: _76  and  _77
REMARK   33  A    between atoms: _76  and  _79
REMARK   34  A    between atoms: _79  and  _80
REMARK   35  A    between atoms: _83  and  _85
REMARK   36  A    between atoms: _85  and  _86
REMARK   37  A    between atoms: _85  and  _88
REMARK   38  A    between atoms: _88  and  _89
REMARK   39  A    between atoms: _92  and  _94
REMARK   40  A    between atoms: _94  and  _95
REMARK   41  A    between atoms: _94  and  _97
REMARK   42  A    between atoms: _100  and  _102
REMARK   43  A    between atoms: _102  and  _103
REMARK   44  A    between atoms: _102  and  _105
REMARK   45  A    between atoms: _105  and  _106
REMARK   46  A    between atoms: _106  and  _107
REMARK   47  A    between atoms: _107  and  _108
REMARK   48  A    between atoms: _108  and  _109
REMARK   49  A    between atoms: _113  and  _115
REMARK   50  A    between atoms: _115  and  _116
REMARK   51  A    between atoms: _115  and  _118
REMARK   52  A    between atoms: _118  and  _119
REMARK   53  A    between atoms: _119  and  _120
REMARK   54  A    between atoms: _122  and  _124
REMARK   55  A    between atoms: _124  and  _125
REMARK   56  A    between atoms: _124  and  _127
REMARK   57  A    between atoms: _127  and  _128
REMARK   58  A    between atoms: _131  and  _133
REMARK   59  A    between atoms: _133  and  _134
REMARK   60  A    between atoms: _136  and  _138
REMARK   61  A    between atoms: _138  and  _139
REMARK   62  A    between atoms: _141  and  _143
REMARK   63  A    between atoms: _143  and  _144
REMARK   64  A    between atoms: _143  and  _146
REMARK   65  A    between atoms: _146  and  _147
REMARK   66  A    between atoms: _150  and  _152
REMARK   67  A    between atoms: _152  and  _153
REMARK   68  A    between atoms: _155  and  _157
REMARK   69  A    between atoms: _157  and  _158
REMARK   70  A    between atoms: _160  and  _162
REMARK   71  A    between atoms: _162  and  _163
REMARK   72  A    between atoms: _162  and  _165
REMARK   73  A    between atoms: _165  and  _166
REMARK   74  A    between atoms: _172  and  _174
REMARK   75  A    between atoms: _174  and  _175
REMARK   76  A    between atoms: _174  and  _177
REMARK   77  A    between atoms: _177  and  _178
REMARK   78  A    between atoms: _181  and  _183
REMARK   79  A    between atoms: _183  and  _184
REMARK   80  A    between atoms: _183  and  _186
REMARK   81  A    between atoms: _189  and  _191
REMARK   82  A    between atoms: _191  and  _192
REMARK   83  A    between atoms: _191  and  _194
REMARK   84  A    between atoms: _197  and  _199
REMARK   85  A    between atoms: _199  and  _200
REMARK   86  A    between atoms: _199  and  _202
REMARK   87  A    between atoms: _202  and  _203
REMARK   88  A    between atoms: _207  and  _208
REMARK   89  A    between atoms: _213  and  _215
REMARK   90  A    between atoms: _215  and  _216
REMARK   91  A    between atoms: _215  and  _218
REMARK   92  A    between atoms: _221  and  _223
REMARK   93  A    between atoms: _223  and  _224
REMARK   94  A    between atoms: _223  and  _226
REMARK   95  A    between atoms: _226  and  _227
REMARK   96  A    between atoms: _232  and  _234
REMARK   97  A    between atoms: _234  and  _235
REMARK   98  A    between atoms: _234  and  _237
REMARK   99  A    between atoms: _237  and  _238
REMARK  100  A    between atoms: _241  and  _243
REMARK  101  A    between atoms: _243  and  _244
REMARK  102  A    between atoms: _243  and  _246
REMARK  103  A    between atoms: _246  and  _247
REMARK  104  A    between atoms: _250  and  _252
REMARK  105  A    between atoms: _252  and  _253
REMARK  106  A    between atoms: _255  and  _257
REMARK  107  A    between atoms: _257  and  _258
REMARK  108  A    between atoms: _257  and  _260
REMARK  109  A    between atoms: _260  and  _261
REMARK  110  A    between atoms: _261  and  _262
REMARK  111  A    between atoms: _262  and  _263
REMARK  112  A    between atoms: _272  and  _274
REMARK  113  A    between atoms: _274  and  _275
REMARK  114  A    between atoms: _274  and  _277
REMARK  115  A    between atoms: _277  and  _278
REMARK  116  A    between atoms: _283  and  _285
REMARK  117  A    between atoms: _285  and  _286
REMARK  118  A    between atoms: _285  and  _288
REMARK  119  A    between atoms: _288  and  _289
REMARK  120  A    between atoms: _289  and  _290
REMARK  121  A    between atoms: _290  and  _291
REMARK  122  A    between atoms: _300  and  _302
REMARK  123  A    between atoms: _302  and  _303
REMARK  124  A    between atoms: _302  and  _305
REMARK  125  A    between atoms: _305  and  _306
REMARK  126  A    between atoms: _309  and  _311
REMARK  127  A    between atoms: _311  and  _312
REMARK  128  A    between atoms: _311  and  _314
REMARK  129  A    between atoms: _314  and  _315
REMARK  130  A    between atoms: _318  and  _320
REMARK  131  A    between atoms: _320  and  _321
REMARK  132  A    between atoms: _320  and  _323
REMARK  133  A    between atoms: _323  and  _324
REMARK  134  A    between atoms: _327  and  _329
REMARK  135  A    between atoms: _329  and  _330
REMARK  136  A    between atoms: _329  and  _332
REMARK  137  A    between atoms: _332  and  _333
REMARK  138  A    between atoms: _336  and  _338
REMARK  139  A    between atoms: _338  and  _339
REMARK  140  A    between atoms: _341  and  _343
REMARK  141  A    between atoms: _343  and  _344
REMARK  142  A    between atoms: _347  and  _349
REMARK  143  A    between atoms: _349  and  _350
REMARK  144  A    between atoms: _349  and  _352
REMARK  145  A    between atoms: _352  and  _353
REMARK  146  A    between atoms: _356  and  _358
REMARK  147  A    between atoms: _358  and  _359
REMARK  148  A    between atoms: _358  and  _361
REMARK  149  A    between atoms: _361  and  _362
REMARK  150  A    between atoms: _365  and  _367
REMARK  151  A    between atoms: _367  and  _368
REMARK  152  A    between atoms: _367  and  _370
REMARK  153  A    between atoms: _370  and  _371
REMARK  154  A    between atoms: _374  and  _376
REMARK  155  A    between atoms: _376  and  _377
REMARK  156  A    between atoms: _376  and  _379
REMARK  157  A    between atoms: _382  and  _384
REMARK  158  A    between atoms: _384  and  _385
REMARK  159  A    between atoms: _384  and  _387
REMARK  160  A    between atoms: _387  and  _388
REMARK  161  A    between atoms: _388  and  _389
REMARK  162  A    between atoms: _389  and  _390
REMARK  163  A    between atoms: _390  and  _391
REMARK  164  A    between atoms: _395  and  _397
REMARK  165  A    between atoms: _397  and  _398
REMARK  166  A    between atoms: _397  and  _400
REMARK  167  A    between atoms: _400  and  _401
REMARK  168  A    between atoms: _401  and  _402
REMARK  169  A    between atoms: _404  and  _406
REMARK  170  A    between atoms: _406  and  _407
REMARK  171  A    between atoms: _406  and  _409
REMARK  172  A    between atoms: _409  and  _410
REMARK  173  A    between atoms: _413  and  _415
REMARK  174  A    between atoms: _415  and  _416
REMARK  175  A    between atoms: _418  and  _420
REMARK  176  A    between atoms: _420  and  _421
REMARK  177  A    between atoms: _423  and  _425
REMARK  178  A    between atoms: _425  and  _426
REMARK  179  A    between atoms: _425  and  _428
REMARK  180  A    between atoms: _428  and  _429
REMARK  181  A    between atoms: _432  and  _434
REMARK  182  A    between atoms: _434  and  _435
REMARK  183  A    between atoms: _437  and  _439
REMARK  184  A    between atoms: _439  and  _440
REMARK  185  A    between atoms: _442  and  _444
REMARK  186  A    between atoms: _444  and  _445
REMARK  187  A    between atoms: _444  and  _447
REMARK  188  A    between atoms: _447  and  _448
REMARK  189  A    between atoms: _454  and  _456
REMARK  190  A    between atoms: _456  and  _457
REMARK  191  A    between atoms: _456  and  _459
REMARK  192  A    between atoms: _459  and  _460
REMARK  193  A    between atoms: _463  and  _465
REMARK  194  A    between atoms: _465  and  _466
REMARK  195  A    between atoms: _465  and  _468
REMARK  196  A    between atoms: _471  and  _473
REMARK  197  A    between atoms: _473  and  _474
REMARK  198  A    between atoms: _473  and  _476
REMARK  199  A    between atoms: _479  and  _481
REMARK  200  A    between atoms: _481  and  _482
REMARK  201  A    between atoms: _481  and  _484
REMARK  202  A    between atoms: _484  and  _485
REMARK  203  A    between atoms: _489  and  _490
REMARK  204  A    between atoms: _495  and  _497
REMARK  205  A    between atoms: _497  and  _498
REMARK  206  A    between atoms: _497  and  _500
REMARK  207  A    between atoms: _503  and  _505
REMARK  208  A    between atoms: _505  and  _506
REMARK  209  A    between atoms: _505  and  _508
REMARK  210  A    between atoms: _508  and  _509
REMARK  211  A    between atoms: _514  and  _516
REMARK  212  A    between atoms: _516  and  _517
REMARK  213  A    between atoms: _516  and  _519
REMARK  214  A    between atoms: _519  and  _520
REMARK  215  A    between atoms: _523  and  _525
REMARK  216  A    between atoms: _525  and  _526
REMARK  217  A    between atoms: _525  and  _528
REMARK  218  A    between atoms: _528  and  _529
REMARK  219  A    between atoms: _532  and  _534
REMARK  220  A    between atoms: _534  and  _535
REMARK  221  A    between atoms: _537  and  _539
REMARK  222  A    between atoms: _539  and  _540
REMARK  223  A    between atoms: _539  and  _542
REMARK  224  A    between atoms: _542  and  _543
REMARK  225  A    between atoms: _543  and  _544
REMARK  226  A    between atoms: _544  and  _545
REMARK  227  A    between atoms: _554  and  _556
REMARK  228  A    between atoms: _556  and  _557
REMARK  229  A    between atoms: _556  and  _559
REMARK  230  A    between atoms: _559  and  _560
REMARK                            x       y       z     vdW  Elec       q    Type
REMARK                         _______ _______ _______ _____ _____    ______ ____
ROOT
ATOM      1  O   HOH     1      22.279  20.821  11.512  0.00  0.00    +0.000 OA
ENDROOT
TORSDOF 0
REMARK  Name = ../refined-set-2016/3pwm/3pwm_pocket.pdb
REMARK  230 active torsions:
REMARK  status: ('A' for Active; 'I' for Inactive)
REMARK    1  A    between atoms: _1  and  _3
REMARK    2  A    between atoms: _3  and  _4
REMARK    3  A    between atoms: _3  and  _6
REMARK    4  A    between atoms: _6  and  _7
REMARK    5  A    between atoms: _7  and  _8
REMARK    6  A    between atoms: _8  and  _9
REMARK    7  A    between atoms: _18  and  _20
REMARK    8  A    between atoms: _20  and  _21
REMARK    9  A    between atoms: _20  and  _23
REMARK   10  A    between atoms: _23  and  _24
REMARK   11  A    between atoms: _27  and  _29
REMARK   12  A    between atoms: _29  and  _30
REMARK   13  A    between atoms: _29  and  _32
REMARK   14  A    between atoms: _32  and  _33
REMARK   15  A    between atoms: _36  and  _38
REMARK   16  A    between atoms: _38  and  _39
REMARK   17  A    between atoms: _38  and  _41
REMARK   18  A    between atoms: _41  and  _42
REMARK   19  A    between atoms: _45  and  _47
REMARK   20  A    between atoms: _47  and  _48
REMARK   21  A    between atoms: _47  and  _50
REMARK   22  A    between atoms: _50  and  _51
REMARK   23  A    between atoms: _54  and  _56
REMARK   24  A    between atoms: _56  and  _57
REMARK   25  A    between atoms: _59  and  _61
REMARK   26  A    between atoms: _61  and  _62
REMARK   27  A    between atoms: _65  and  _67
REMARK   28  A    between atoms: _67  and  _68
REMARK   29  A    between atoms: _67  and  _70
REMARK   30  A    between atoms: _70  and  _71
REMARK   31  A    between atoms: _74  and  _76
REMARK   32  A    between atoms: _76  and  _77
REMARK   33  A    between atoms: _76  and  _79
REMARK   34  A    between atoms: _79  and  _80
REMARK   35  A    between atoms: _83  and  _85
REMARK   36  A    between atoms: _85  and  _86
REMARK   37  A    between atoms: _85  and  _88
REMARK   38  A    between atoms: _88  and  _89
REMARK   39  A    between atoms: _92  and  _94
REMARK   40  A    between atoms: _94  and  _95
REMARK   41  A    between atoms: _94  and  _97
REMARK   42  A    between atoms: _100  and  _102
REMARK   43  A    between atoms: _102  and  _103
REMARK   44  A    between atoms: _102  and  _105
REMARK   45  A    between atoms: _105  and  _106
REMARK   46  A    between atoms: _106  and  _107
REMARK   47  A    between atoms: _107  and  _108
REMARK   48  A    between atoms: _108  and  _109
REMARK   49  A    between atoms: _113  and  _115
REMARK   50  A    between atoms: _115  and  _116
REMARK   51  A    between atoms: _115  and  _118
REMARK   52  A    between atoms: _118  and  _119
REMARK   53  A    between atoms: _119  and  _120
REMARK   54  A    between atoms: _122  and  _124
REMARK   55  A    between atoms: _124  and  _125
REMARK   56  A    between atoms: _124  and  _127
REMARK   57  A    between atoms: _127  and  _128
REMARK   58  A    between atoms: _131  and  _133
REMARK   59  A    between atoms: _133  and  _134
REMARK   60  A    between atoms: _136  and  _138
REMARK   61  A    between atoms: _138  and  _139
REMARK   62  A    between atoms: _141  and  _143
REMARK   63  A    between atoms: _143  and  _144
REMARK   64  A    between atoms: _143  and  _146
REMARK   65  A    between atoms: _146  and  _147
REMARK   66  A    between atoms: _150  and  _152
REMARK   67  A    between atoms: _152  and  _153
REMARK   68  A    between atoms: _155  and  _157
REMARK   69  A    between atoms: _157  and  _158
REMARK   70  A    between atoms: _160  and  _162
REMARK   71  A    between atoms: _162  and  _163
REMARK   72  A    between atoms: _162  and  _165
REMARK   73  A    between atoms: _165  and  _166
REMARK   74  A    between atoms: _172  and  _174
REMARK   75  A    between atoms: _174  and  _175
REMARK   76  A    between atoms: _174  and  _177
REMARK   77  A    between atoms: _177  and  _178
REMARK   78  A    between atoms: _181  and  _183
REMARK   79  A    between atoms: _183  and  _184
REMARK   80  A    between atoms: _183  and  _186
REMARK   81  A    between atoms: _189  and  _191
REMARK   82  A    between atoms: _191  and  _192
REMARK   83  A    between atoms: _191  and  _194
REMARK   84  A    between atoms: _197  and  _199
REMARK   85  A    between atoms: _199  and  _200
REMARK   86  A    between atoms: _199  and  _202
REMARK   87  A    between atoms: _202  and  _203
REMARK   88  A    between atoms: _207  and  _208
REMARK   89  A    between atoms: _213  and  _215
REMARK   90  A    between atoms: _215  and  _216
REMARK   91  A    between atoms: _215  and  _218
REMARK   92  A    between atoms: _221  and  _223
REMARK   93  A    between atoms: _223  and  _224
REMARK   94  A    between atoms: _223  and  _226
REMARK   95  A    between atoms: _226  and  _227
REMARK   96  A    between atoms: _232  and  _234
REMARK   97  A    between atoms: _234  and  _235
REMARK   98  A    between atoms: _234  and  _237
REMARK   99  A    between atoms: _237  and  _238
REMARK  100  A    between atoms: _241  and  _243
REMARK  101  A    between atoms: _243  and  _244
REMARK  102  A    between atoms: _243  and  _246
REMARK  103  A    between atoms: _246  and  _247
REMARK  104  A    between atoms: _250  and  _252
REMARK  105  A    between atoms: _252  and  _253
REMARK  106  A    between atoms: _255  and  _257
REMARK  107  A    between atoms: _257  and  _258
REMARK  108  A    between atoms: _257  and  _260
REMARK  109  A    between atoms: _260  and  _261
REMARK  110  A    between atoms: _261  and  _262
REMARK  111  A    between atoms: _262  and  _263
REMARK  112  A    between atoms: _272  and  _274
REMARK  113  A    between atoms: _274  and  _275
REMARK  114  A    between atoms: _274  and  _277
REMARK  115  A    between atoms: _277  and  _278
REMARK  116  A    between atoms: _283  and  _285
REMARK  117  A    between atoms: _285  and  _286
REMARK  118  A    between atoms: _285  and  _288
REMARK  119  A    between atoms: _288  and  _289
REMARK  120  A    between atoms: _289  and  _290
REMARK  121  A    between atoms: _290  and  _291
REMARK  122  A    between atoms: _300  and  _302
REMARK  123  A    between atoms: _302  and  _303
REMARK  124  A    between atoms: _302  and  _305
REMARK  125  A    between atoms: _305  and  _306
REMARK  126  A    between atoms: _309  and  _311
REMARK  127  A    between atoms: _311  and  _312
REMARK  128  A    between atoms: _311  and  _314
REMARK  129  A    between atoms: _314  and  _315
REMARK  130  A    between atoms: _318  and  _320
REMARK  131  A    between atoms: _320  and  _321
REMARK  132  A    between atoms: _320  and  _323
REMARK  133  A    between atoms: _323  and  _324
REMARK  134  A    between atoms: _327  and  _329
REMARK  135  A    between atoms: _329  and  _330
REMARK  136  A    between atoms: _329  and  _332
REMARK  137  A    between atoms: _332  and  _333
REMARK  138  A    between atoms: _336  and  _338
REMARK  139  A    between atoms: _338  and  _339
REMARK  140  A    between atoms: _341  and  _343
REMARK  141  A    between atoms: _343  and  _344
REMARK  142  A    between atoms: _347  and  _349
REMARK  143  A    between atoms: _349  and  _350
REMARK  144  A    between atoms: _349  and  _352
REMARK  145  A    between atoms: _352  and  _353
REMARK  146  A    between atoms: _356  and  _358
REMARK  147  A    between atoms: _358  and  _359
REMARK  148  A    between atoms: _358  and  _361
REMARK  149  A    between atoms: _361  and  _362
REMARK  150  A    between atoms: _365  and  _367
REMARK  151  A    between atoms: _367  and  _368
REMARK  152  A    between atoms: _367  and  _370
REMARK  153  A    between atoms: _370  and  _371
REMARK  154  A    between atoms: _374  and  _376
REMARK  155  A    between atoms: _376  and  _377
REMARK  156  A    between atoms: _376  and  _379
REMARK  157  A    between atoms: _382  and  _384
REMARK  158  A    between atoms: _384  and  _385
REMARK  159  A    between atoms: _384  and  _387
REMARK  160  A    between atoms: _387  and  _388
REMARK  161  A    between atoms: _388  and  _389
REMARK  162  A    between atoms: _389  and  _390
REMARK  163  A    between atoms: _390  and  _391
REMARK  164  A    between atoms: _395  and  _397
REMARK  165  A    between atoms: _397  and  _398
REMARK  166  A    between atoms: _397  and  _400
REMARK  167  A    between atoms: _400  and  _401
REMARK  168  A    between atoms: _401  and  _402
REMARK  169  A    between atoms: _404  and  _406
REMARK  170  A    between atoms: _406  and  _407
REMARK  171  A    between atoms: _406  and  _409
REMARK  172  A    between atoms: _409  and  _410
REMARK  173  A    between atoms: _413  and  _415
REMARK  174  A    between atoms: _415  and  _416
REMARK  175  A    between atoms: _418  and  _420
REMARK  176  A    between atoms: _420  and  _421
REMARK  177  A    between atoms: _423  and  _425
REMARK  178  A    between atoms: _425  and  _426
REMARK  179  A    between atoms: _425  and  _428
REMARK  180  A    between atoms: _428  and  _429
REMARK  181  A    between atoms: _432  and  _434
REMARK  182  A    between atoms: _434  and  _435
REMARK  183  A    between atoms: _437  and  _439
REMARK  184  A    between atoms: _439  and  _440
REMARK  185  A    between atoms: _442  and  _444
REMARK  186  A    between atoms: _444  and  _445
REMARK  187  A    between atoms: _444  and  _447
REMARK  188  A    between atoms: _447  and  _448
REMARK  189  A    between atoms: _454  and  _456
REMARK  190  A    between atoms: _456  and  _457
REMARK  191  A    between atoms: _456  and  _459
REMARK  192  A    between atoms: _459  and  _460
REMARK  193  A    between atoms: _463  and  _465
REMARK  194  A    between atoms: _465  and  _466
REMARK  195  A    between atoms: _465  and  _468
REMARK  196  A    between atoms: _471  and  _473
REMARK  197  A    between atoms: _473  and  _474
REMARK  198  A    between atoms: _473  and  _476
REMARK  199  A    between atoms: _479  and  _481
REMARK  200  A    between atoms: _481  and  _482
REMARK  201  A    between atoms: _481  and  _484
REMARK  202  A    between atoms: _484  and  _485
REMARK  203  A    between atoms: _489  and  _490
REMARK  204  A    between atoms: _495  and  _497
REMARK  205  A    between atoms: _497  and  _498
REMARK  206  A    between atoms: _497  and  _500
REMARK  207  A    between atoms: _503  and  _505
REMARK  208  A    between atoms: _505  and  _506
REMARK  209  A    between atoms: _505  and  _508
REMARK  210  A    between atoms: _508  and  _509
REMARK  211  A    between atoms: _514  and  _516
REMARK  212  A    between atoms: _516  and  _517
REMARK  213  A    between atoms: _516  and  _519
REMARK  214  A    between atoms: _519  and  _520
REMARK  215  A    between atoms: _523  and  _525
REMARK  216  A    between atoms: _525  and  _526
REMARK  217  A    between atoms: _525  and  _528
REMARK  218  A    between atoms: _528  and  _529
REMARK  219  A    between atoms: _532  and  _534
REMARK  220  A    between atoms: _534  and  _535
REMARK  221  A    between atoms: _537  and  _539
REMARK  222  A    between atoms: _539  and  _540
REMARK  223  A    between atoms: _539  and  _542
REMARK  224  A    between atoms: _542  and  _543
REMARK  225  A    between atoms: _543  and  _544
REMARK  226  A    between atoms: _544  and  _545
REMARK  227  A    between atoms: _554  and  _556
REMARK  228  A    between atoms: _556  and  _557
REMARK  229  A    between atoms: _556  and  _559
REMARK  230  A    between atoms: _559  and  _560
REMARK                            x       y       z     vdW  Elec       q    Type
REMARK                         _______ _______ _______ _____ _____    ______ ____
ROOT
ATOM      1  O   HOH     1       4.032  12.871  17.131  0.00  0.00    +0.000 OA
ENDROOT
TORSDOF 0
REMARK  Name = ../refined-set-2016/3pwm/3pwm_pocket.pdb
REMARK  230 active torsions:
REMARK  status: ('A' for Active; 'I' for Inactive)
REMARK    1  A    between atoms: _1  and  _3
REMARK    2  A    between atoms: _3  and  _4
REMARK    3  A    between atoms: _3  and  _6
REMARK    4  A    between atoms: _6  and  _7
REMARK    5  A    between atoms: _7  and  _8
REMARK    6  A    between atoms: _8  and  _9
REMARK    7  A    between atoms: _18  and  _20
REMARK    8  A    between atoms: _20  and  _21
REMARK    9  A    between atoms: _20  and  _23
REMARK   10  A    between atoms: _23  and  _24
REMARK   11  A    between atoms: _27  and  _29
REMARK   12  A    between atoms: _29  and  _30
REMARK   13  A    between atoms: _29  and  _32
REMARK   14  A    between atoms: _32  and  _33
REMARK   15  A    between atoms: _36  and  _38
REMARK   16  A    between atoms: _38  and  _39
REMARK   17  A    between atoms: _38  and  _41
REMARK   18  A    between atoms: _41  and  _42
REMARK   19  A    between atoms: _45  and  _47
REMARK   20  A    between atoms: _47  and  _48
REMARK   21  A    between atoms: _47  and  _50
REMARK   22  A    between atoms: _50  and  _51
REMARK   23  A    between atoms: _54  and  _56
REMARK   24  A    between atoms: _56  and  _57
REMARK   25  A    between atoms: _59  and  _61
REMARK   26  A    between atoms: _61  and  _62
REMARK   27  A    between atoms: _65  and  _67
REMARK   28  A    between atoms: _67  and  _68
REMARK   29  A    between atoms: _67  and  _70
REMARK   30  A    between atoms: _70  and  _71
REMARK   31  A    between atoms: _74  and  _76
REMARK   32  A    between atoms: _76  and  _77
REMARK   33  A    between atoms: _76  and  _79
REMARK   34  A    between atoms: _79  and  _80
REMARK   35  A    between atoms: _83  and  _85
REMARK   36  A    between atoms: _85  and  _86
REMARK   37  A    between atoms: _85  and  _88
REMARK   38  A    between atoms: _88  and  _89
REMARK   39  A    between atoms: _92  and  _94
REMARK   40  A    between atoms: _94  and  _95
REMARK   41  A    between atoms: _94  and  _97
REMARK   42  A    between atoms: _100  and  _102
REMARK   43  A    between atoms: _102  and  _103
REMARK   44  A    between atoms: _102  and  _105
REMARK   45  A    between atoms: _105  and  _106
REMARK   46  A    between atoms: _106  and  _107
REMARK   47  A    between atoms: _107  and  _108
REMARK   48  A    between atoms: _108  and  _109
REMARK   49  A    between atoms: _113  and  _115
REMARK   50  A    between atoms: _115  and  _116
REMARK   51  A    between atoms: _115  and  _118
REMARK   52  A    between atoms: _118  and  _119
REMARK   53  A    between atoms: _119  and  _120
REMARK   54  A    between atoms: _122  and  _124
REMARK   55  A    between atoms: _124  and  _125
REMARK   56  A    between atoms: _124  and  _127
REMARK   57  A    between atoms: _127  and  _128
REMARK   58  A    between atoms: _131  and  _133
REMARK   59  A    between atoms: _133  and  _134
REMARK   60  A    between atoms: _136  and  _138
REMARK   61  A    between atoms: _138  and  _139
REMARK   62  A    between atoms: _141  and  _143
REMARK   63  A    between atoms: _143  and  _144
REMARK   64  A    between atoms: _143  and  _146
REMARK   65  A    between atoms: _146  and  _147
REMARK   66  A    between atoms: _150  and  _152
REMARK   67  A    between atoms: _152  and  _153
REMARK   68  A    between atoms: _155  and  _157
REMARK   69  A    between atoms: _157  and  _158
REMARK   70  A    between atoms: _160  and  _162
REMARK   71  A    between atoms: _162  and  _163
REMARK   72  A    between atoms: _162  and  _165
REMARK   73  A    between atoms: _165  and  _166
REMARK   74  A    between atoms: _172  and  _174
REMARK   75  A    between atoms: _174  and  _175
REMARK   76  A    between atoms: _174  and  _177
REMARK   77  A    between atoms: _177  and  _178
REMARK   78  A    between atoms: _181  and  _183
REMARK   79  A    between atoms: _183  and  _184
REMARK   80  A    between atoms: _183  and  _186
REMARK   81  A    between atoms: _189  and  _191
REMARK   82  A    between atoms: _191  and  _192
REMARK   83  A    between atoms: _191  and  _194
REMARK   84  A    between atoms: _197  and  _199
REMARK   85  A    between atoms: _199  and  _200
REMARK   86  A    between atoms: _199  and  _202
REMARK   87  A    between atoms: _202  and  _203
REMARK   88  A    between atoms: _207  and  _208
REMARK   89  A    between atoms: _213  and  _215
REMARK   90  A    between atoms: _215  and  _216
REMARK   91  A    between atoms: _215  and  _218
REMARK   92  A    between atoms: _221  and  _223
REMARK   93  A    between atoms: _223  and  _224
REMARK   94  A    between atoms: _223  and  _226
REMARK   95  A    between atoms: _226  and  _227
REMARK   96  A    between atoms: _232  and  _234
REMARK   97  A    between atoms: _234  and  _235
REMARK   98  A    between atoms: _234  and  _237
REMARK   99  A    between atoms: _237  and  _238
REMARK  100  A    between atoms: _241  and  _243
REMARK  101  A    between atoms: _243  and  _244
REMARK  102  A    between atoms: _243  and  _246
REMARK  103  A    between atoms: _246  and  _247
REMARK  104  A    between atoms: _250  and  _252
REMARK  105  A    between atoms: _252  and  _253
REMARK  106  A    between atoms: _255  and  _257
REMARK  107  A    between atoms: _257  and  _258
REMARK  108  A    between atoms: _257  and  _260
REMARK  109  A    between atoms: _260  and  _261
REMARK  110  A    between atoms: _261  and  _262
REMARK  111  A    between atoms: _262  and  _263
REMARK  112  A    between atoms: _272  and  _274
REMARK  113  A    between atoms: _274  and  _275
REMARK  114  A    between atoms: _274  and  _277
REMARK  115  A    between atoms: _277  and  _278
REMARK  116  A    between atoms: _283  and  _285
REMARK  117  A    between atoms: _285  and  _286
REMARK  118  A    between atoms: _285  and  _288
REMARK  119  A    between atoms: _288  and  _289
REMARK  120  A    between atoms: _289  and  _290
REMARK  121  A    between atoms: _290  and  _291
REMARK  122  A    between atoms: _300  and  _302
REMARK  123  A    between atoms: _302  and  _303
REMARK  124  A    between atoms: _302  and  _305
REMARK  125  A    between atoms: _305  and  _306
REMARK  126  A    between atoms: _309  and  _311
REMARK  127  A    between atoms: _311  and  _312
REMARK  128  A    between atoms: _311  and  _314
REMARK  129  A    between atoms: _314  and  _315
REMARK  130  A    between atoms: _318  and  _320
REMARK  131  A    between atoms: _320  and  _321
REMARK  132  A    between atoms: _320  and  _323
REMARK  133  A    between atoms: _323  and  _324
REMARK  134  A    between atoms: _327  and  _329
REMARK  135  A    between atoms: _329  and  _330
REMARK  136  A    between atoms: _329  and  _332
REMARK  137  A    between atoms: _332  and  _333
REMARK  138  A    between atoms: _336  and  _338
REMARK  139  A    between atoms: _338  and  _339
REMARK  140  A    between atoms: _341  and  _343
REMARK  141  A    between atoms: _343  and  _344
REMARK  142  A    between atoms: _347  and  _349
REMARK  143  A    between atoms: _349  and  _350
REMARK  144  A    between atoms: _349  and  _352
REMARK  145  A    between atoms: _352  and  _353
REMARK  146  A    between atoms: _356  and  _358
REMARK  147  A    between atoms: _358  and  _359
REMARK  148  A    between atoms: _358  and  _361
REMARK  149  A    between atoms: _361  and  _362
REMARK  150  A    between atoms: _365  and  _367
REMARK  151  A    between atoms: _367  and  _368
REMARK  152  A    between atoms: _367  and  _370
REMARK  153  A    between atoms: _370  and  _371
REMARK  154  A    between atoms: _374  and  _376
REMARK  155  A    between atoms: _376  and  _377
REMARK  156  A    between atoms: _376  and  _379
REMARK  157  A    between atoms: _382  and  _384
REMARK  158  A    between atoms: _384  and  _385
REMARK  159  A    between atoms: _384  and  _387
REMARK  160  A    between atoms: _387  and  _388
REMARK  161  A    between atoms: _388  and  _389
REMARK  162  A    between atoms: _389  and  _390
REMARK  163  A    between atoms: _390  and  _391
REMARK  164  A    between atoms: _395  and  _397
REMARK  165  A    between atoms: _397  and  _398
REMARK  166  A    between atoms: _397  and  _400
REMARK  167  A    between atoms: _400  and  _401
REMARK  168  A    between atoms: _401  and  _402
REMARK  169  A    between atoms: _404  and  _406
REMARK  170  A    between atoms: _406  and  _407
REMARK  171  A    between atoms: _406  and  _409
REMARK  172  A    between atoms: _409  and  _410
REMARK  173  A    between atoms: _413  and  _415
REMARK  174  A    between atoms: _415  and  _416
REMARK  175  A    between atoms: _418  and  _420
REMARK  176  A    between atoms: _420  and  _421
REMARK  177  A    between atoms: _423  and  _425
REMARK  178  A    between atoms: _425  and  _426
REMARK  179  A    between atoms: _425  and  _428
REMARK  180  A    between atoms: _428  and  _429
REMARK  181  A    between atoms: _432  and  _434
REMARK  182  A    between atoms: _434  and  _435
REMARK  183  A    between atoms: _437  and  _439
REMARK  184  A    between atoms: _439  and  _440
REMARK  185  A    between atoms: _442  and  _444
REMARK  186  A    between atoms: _444  and  _445
REMARK  187  A    between atoms: _444  and  _447
REMARK  188  A    between atoms: _447  and  _448
REMARK  189  A    between atoms: _454  and  _456
REMARK  190  A    between atoms: _456  and  _457
REMARK  191  A    between atoms: _456  and  _459
REMARK  192  A    between atoms: _459  and  _460
REMARK  193  A    between atoms: _463  and  _465
REMARK  194  A    between atoms: _465  and  _466
REMARK  195  A    between atoms: _465  and  _468
REMARK  196  A    between atoms: _471  and  _473
REMARK  197  A    between atoms: _473  and  _474
REMARK  198  A    between atoms: _473  and  _476
REMARK  199  A    between atoms: _479  and  _481
REMARK  200  A    between atoms: _481  and  _482
REMARK  201  A    between atoms: _481  and  _484
REMARK  202  A    between atoms: _484  and  _485
REMARK  203  A    between atoms: _489  and  _490
REMARK  204  A    between atoms: _495  and  _497
REMARK  205  A    between atoms: _497  and  _498
REMARK  206  A    between atoms: _497  and  _500
REMARK  207  A    between atoms: _503  and  _505
REMARK  208  A    between atoms: _505  and  _506
REMARK  209  A    between atoms: _505  and  _508
REMARK  210  A    between atoms: _508  and  _509
REMARK  211  A    between atoms: _514  and  _516
REMARK  212  A    between atoms: _516  and  _517
REMARK  213  A    between atoms: _516  and  _519
REMARK  214  A    between atoms: _519  and  _520
REMARK  215  A    between atoms: _523  and  _525
REMARK  216  A    between atoms: _525  and  _526
REMARK  217  A    between atoms: _525  and  _528
REMARK  218  A    between atoms: _528  and  _529
REMARK  219  A    between atoms: _532  and  _534
REMARK  220  A    between atoms: _534  and  _535
REMARK  221  A    between atoms: _537  and  _539
REMARK  222  A    between atoms: _539  and  _540
REMARK  223  A    between atoms: _539  and  _542
REMARK  224  A    between atoms: _542  and  _543
REMARK  225  A    between atoms: _543  and  _544
REMARK  226  A    between atoms: _544  and  _545
REMARK  227  A    between atoms: _554  and  _556
REMARK  228  A    between atoms: _556  and  _557
REMARK  229  A    between atoms: _556  and  _559
REMARK  230  A    between atoms: _559  and  _560
REMARK                            x       y       z     vdW  Elec       q    Type
REMARK                         _______ _______ _______ _____ _____    ______ ____
ROOT
ATOM      1  O   HOH     1       4.420   9.704  11.083  0.00  0.00    +0.000 OA
ENDROOT
TORSDOF 0
REMARK  Name = ../refined-set-2016/3pwm/3pwm_pocket.pdb
REMARK  230 active torsions:
REMARK  status: ('A' for Active; 'I' for Inactive)
REMARK    1  A    between atoms: _1  and  _3
REMARK    2  A    between atoms: _3  and  _4
REMARK    3  A    between atoms: _3  and  _6
REMARK    4  A    between atoms: _6  and  _7
REMARK    5  A    between atoms: _7  and  _8
REMARK    6  A    between atoms: _8  and  _9
REMARK    7  A    between atoms: _18  and  _20
REMARK    8  A    between atoms: _20  and  _21
REMARK    9  A    between atoms: _20  and  _23
REMARK   10  A    between atoms: _23  and  _24
REMARK   11  A    between atoms: _27  and  _29
REMARK   12  A    between atoms: _29  and  _30
REMARK   13  A    between atoms: _29  and  _32
REMARK   14  A    between atoms: _32  and  _33
REMARK   15  A    between atoms: _36  and  _38
REMARK   16  A    between atoms: _38  and  _39
REMARK   17  A    between atoms: _38  and  _41
REMARK   18  A    between atoms: _41  and  _42
REMARK   19  A    between atoms: _45  and  _47
REMARK   20  A    between atoms: _47  and  _48
REMARK   21  A    between atoms: _47  and  _50
REMARK   22  A    between atoms: _50  and  _51
REMARK   23  A    between atoms: _54  and  _56
REMARK   24  A    between atoms: _56  and  _57
REMARK   25  A    between atoms: _59  and  _61
REMARK   26  A    between atoms: _61  and  _62
REMARK   27  A    between atoms: _65  and  _67
REMARK   28  A    between atoms: _67  and  _68
REMARK   29  A    between atoms: _67  and  _70
REMARK   30  A    between atoms: _70  and  _71
REMARK   31  A    between atoms: _74  and  _76
REMARK   32  A    between atoms: _76  and  _77
REMARK   33  A    between atoms: _76  and  _79
REMARK   34  A    between atoms: _79  and  _80
REMARK   35  A    between atoms: _83  and  _85
REMARK   36  A    between atoms: _85  and  _86
REMARK   37  A    between atoms: _85  and  _88
REMARK   38  A    between atoms: _88  and  _89
REMARK   39  A    between atoms: _92  and  _94
REMARK   40  A    between atoms: _94  and  _95
REMARK   41  A    between atoms: _94  and  _97
REMARK   42  A    between atoms: _100  and  _102
REMARK   43  A    between atoms: _102  and  _103
REMARK   44  A    between atoms: _102  and  _105
REMARK   45  A    between atoms: _105  and  _106
REMARK   46  A    between atoms: _106  and  _107
REMARK   47  A    between atoms: _107  and  _108
REMARK   48  A    between atoms: _108  and  _109
REMARK   49  A    between atoms: _113  and  _115
REMARK   50  A    between atoms: _115  and  _116
REMARK   51  A    between atoms: _115  and  _118
REMARK   52  A    between atoms: _118  and  _119
REMARK   53  A    between atoms: _119  and  _120
REMARK   54  A    between atoms: _122  and  _124
REMARK   55  A    between atoms: _124  and  _125
REMARK   56  A    between atoms: _124  and  _127
REMARK   57  A    between atoms: _127  and  _128
REMARK   58  A    between atoms: _131  and  _133
REMARK   59  A    between atoms: _133  and  _134
REMARK   60  A    between atoms: _136  and  _138
REMARK   61  A    between atoms: _138  and  _139
REMARK   62  A    between atoms: _141  and  _143
REMARK   63  A    between atoms: _143  and  _144
REMARK   64  A    between atoms: _143  and  _146
REMARK   65  A    between atoms: _146  and  _147
REMARK   66  A    between atoms: _150  and  _152
REMARK   67  A    between atoms: _152  and  _153
REMARK   68  A    between atoms: _155  and  _157
REMARK   69  A    between atoms: _157  and  _158
REMARK   70  A    between atoms: _160  and  _162
REMARK   71  A    between atoms: _162  and  _163
REMARK   72  A    between atoms: _162  and  _165
REMARK   73  A    between atoms: _165  and  _166
REMARK   74  A    between atoms: _172  and  _174
REMARK   75  A    between atoms: _174  and  _175
REMARK   76  A    between atoms: _174  and  _177
REMARK   77  A    between atoms: _177  and  _178
REMARK   78  A    between atoms: _181  and  _183
REMARK   79  A    between atoms: _183  and  _184
REMARK   80  A    between atoms: _183  and  _186
REMARK   81  A    between atoms: _189  and  _191
REMARK   82  A    between atoms: _191  and  _192
REMARK   83  A    between atoms: _191  and  _194
REMARK   84  A    between atoms: _197  and  _199
REMARK   85  A    between atoms: _199  and  _200
REMARK   86  A    between atoms: _199  and  _202
REMARK   87  A    between atoms: _202  and  _203
REMARK   88  A    between atoms: _207  and  _208
REMARK   89  A    between atoms: _213  and  _215
REMARK   90  A    between atoms: _215  and  _216
REMARK   91  A    between atoms: _215  and  _218
REMARK   92  A    between atoms: _221  and  _223
REMARK   93  A    between atoms: _223  and  _224
REMARK   94  A    between atoms: _223  and  _226
REMARK   95  A    between atoms: _226  and  _227
REMARK   96  A    between atoms: _232  and  _234
REMARK   97  A    between atoms: _234  and  _235
REMARK   98  A    between atoms: _234  and  _237
REMARK   99  A    between atoms: _237  and  _238
REMARK  100  A    between atoms: _241  and  _243
REMARK  101  A    between atoms: _243  and  _244
REMARK  102  A    between atoms: _243  and  _246
REMARK  103  A    between atoms: _246  and  _247
REMARK  104  A    between atoms: _250  and  _252
REMARK  105  A    between atoms: _252  and  _253
REMARK  106  A    between atoms: _255  and  _257
REMARK  107  A    between atoms: _257  and  _258
REMARK  108  A    between atoms: _257  and  _260
REMARK  109  A    between atoms: _260  and  _261
REMARK  110  A    between atoms: _261  and  _262
REMARK  111  A    between atoms: _262  and  _263
REMARK  112  A    between atoms: _272  and  _274
REMARK  113  A    between atoms: _274  and  _275
REMARK  114  A    between atoms: _274  and  _277
REMARK  115  A    between atoms: _277  and  _278
REMARK  116  A    between atoms: _283  and  _285
REMARK  117  A    between atoms: _285  and  _286
REMARK  118  A    between atoms: _285  and  _288
REMARK  119  A    between atoms: _288  and  _289
REMARK  120  A    between atoms: _289  and  _290
REMARK  121  A    between atoms: _290  and  _291
REMARK  122  A    between atoms: _300  and  _302
REMARK  123  A    between atoms: _302  and  _303
REMARK  124  A    between atoms: _302  and  _305
REMARK  125  A    between atoms: _305  and  _306
REMARK  126  A    between atoms: _309  and  _311
REMARK  127  A    between atoms: _311  and  _312
REMARK  128  A    between atoms: _311  and  _314
REMARK  129  A    between atoms: _314  and  _315
REMARK  130  A    between atoms: _318  and  _320
REMARK  131  A    between atoms: _320  and  _321
REMARK  132  A    between atoms: _320  and  _323
REMARK  133  A    between atoms: _323  and  _324
REMARK  134  A    between atoms: _327  and  _329
REMARK  135  A    between atoms: _329  and  _330
REMARK  136  A    between atoms: _329  and  _332
REMARK  137  A    between atoms: _332  and  _333
REMARK  138  A    between atoms: _336  and  _338
REMARK  139  A    between atoms: _338  and  _339
REMARK  140  A    between atoms: _341  and  _343
REMARK  141  A    between atoms: _343  and  _344
REMARK  142  A    between atoms: _347  and  _349
REMARK  143  A    between atoms: _349  and  _350
REMARK  144  A    between atoms: _349  and  _352
REMARK  145  A    between atoms: _352  and  _353
REMARK  146  A    between atoms: _356  and  _358
REMARK  147  A    between atoms: _358  and  _359
REMARK  148  A    between atoms: _358  and  _361
REMARK  149  A    between atoms: _361  and  _362
REMARK  150  A    between atoms: _365  and  _367
REMARK  151  A    between atoms: _367  and  _368
REMARK  152  A    between atoms: _367  and  _370
REMARK  153  A    between atoms: _370  and  _371
REMARK  154  A    between atoms: _374  and  _376
REMARK  155  A    between atoms: _376  and  _377
REMARK  156  A    between atoms: _376  and  _379
REMARK  157  A    between atoms: _382  and  _384
REMARK  158  A    between atoms: _384  and  _385
REMARK  159  A    between atoms: _384  and  _387
REMARK  160  A    between atoms: _387  and  _388
REMARK  161  A    between atoms: _388  and  _389
REMARK  162  A    between atoms: _389  and  _390
REMARK  163  A    between atoms: _390  and  _391
REMARK  164  A    between atoms: _395  and  _397
REMARK  165  A    between atoms: _397  and  _398
REMARK  166  A    between atoms: _397  and  _400
REMARK  167  A    between atoms: _400  and  _401
REMARK  168  A    between atoms: _401  and  _402
REMARK  169  A    between atoms: _404  and  _406
REMARK  170  A    between atoms: _406  and  _407
REMARK  171  A    between atoms: _406  and  _409
REMARK  172  A    between atoms: _409  and  _410
REMARK  173  A    between atoms: _413  and  _415
REMARK  174  A    between atoms: _415  and  _416
REMARK  175  A    between atoms: _418  and  _420
REMARK  176  A    between atoms: _420  and  _421
REMARK  177  A    between atoms: _423  and  _425
REMARK  178  A    between atoms: _425  and  _426
REMARK  179  A    between atoms: _425  and  _428
REMARK  180  A    between atoms: _428  and  _429
REMARK  181  A    between atoms: _432  and  _434
REMARK  182  A    between atoms: _434  and  _435
REMARK  183  A    between atoms: _437  and  _439
REMARK  184  A    between atoms: _439  and  _440
REMARK  185  A    between atoms: _442  and  _444
REMARK  186  A    between atoms: _444  and  _445
REMARK  187  A    between atoms: _444  and  _447
REMARK  188  A    between atoms: _447  and  _448
REMARK  189  A    between atoms: _454  and  _456
REMARK  190  A    between atoms: _456  and  _457
REMARK  191  A    between atoms: _456  and  _459
REMARK  192  A    between atoms: _459  and  _460
REMARK  193  A    between atoms: _463  and  _465
REMARK  194  A    between atoms: _465  and  _466
REMARK  195  A    between atoms: _465  and  _468
REMARK  196  A    between atoms: _471  and  _473
REMARK  197  A    between atoms: _473  and  _474
REMARK  198  A    between atoms: _473  and  _476
REMARK  199  A    between atoms: _479  and  _481
REMARK  200  A    between atoms: _481  and  _482
REMARK  201  A    between atoms: _481  and  _484
REMARK  202  A    between atoms: _484  and  _485
REMARK  203  A    between atoms: _489  and  _490
REMARK  204  A    between atoms: _495  and  _497
REMARK  205  A    between atoms: _497  and  _498
REMARK  206  A    between atoms: _497  and  _500
REMARK  207  A    between atoms: _503  and  _505
REMARK  208  A    between atoms: _505  and  _506
REMARK  209  A    between atoms: _505  and  _508
REMARK  210  A    between atoms: _508  and  _509
REMARK  211  A    between atoms: _514  and  _516
REMARK  212  A    between atoms: _516  and  _517
REMARK  213  A    between atoms: _516  and  _519
REMARK  214  A    between atoms: _519  and  _520
REMARK  215  A    between atoms: _523  and  _525
REMARK  216  A    between atoms: _525  and  _526
REMARK  217  A    between atoms: _525  and  _528
REMARK  218  A    between atoms: _528  and  _529
REMARK  219  A    between atoms: _532  and  _534
REMARK  220  A    between atoms: _534  and  _535
REMARK  221  A    between atoms: _537  and  _539
REMARK  222  A    between atoms: _539  and  _540
REMARK  223  A    between atoms: _539  and  _542
REMARK  224  A    between atoms: _542  and  _543
REMARK  225  A    between atoms: _543  and  _544
REMARK  226  A    between atoms: _544  and  _545
REMARK  227  A    between atoms: _554  and  _556
REMARK  228  A    between atoms: _556  and  _557
REMARK  229  A    between atoms: _556  and  _559
REMARK  230  A    between atoms: _559  and  _560
REMARK                            x       y       z     vdW  Elec       q    Type
REMARK                         _______ _______ _______ _____ _____    ______ ____
ROOT
ATOM      1  O   HOH     1       7.001   8.205  13.670  0.00  0.00    +0.000 OA
ENDROOT
TORSDOF 0
REMARK  Name = ../refined-set-2016/3pwm/3pwm_pocket.pdb
REMARK  230 active torsions:
REMARK  status: ('A' for Active; 'I' for Inactive)
REMARK    1  A    between atoms: _1  and  _3
REMARK    2  A    between atoms: _3  and  _4
REMARK    3  A    between atoms: _3  and  _6
REMARK    4  A    between atoms: _6  and  _7
REMARK    5  A    between atoms: _7  and  _8
REMARK    6  A    between atoms: _8  and  _9
REMARK    7  A    between atoms: _18  and  _20
REMARK    8  A    between atoms: _20  and  _21
REMARK    9  A    between atoms: _20  and  _23
REMARK   10  A    between atoms: _23  and  _24
REMARK   11  A    between atoms: _27  and  _29
REMARK   12  A    between atoms: _29  and  _30
REMARK   13  A    between atoms: _29  and  _32
REMARK   14  A    between atoms: _32  and  _33
REMARK   15  A    between atoms: _36  and  _38
REMARK   16  A    between atoms: _38  and  _39
REMARK   17  A    between atoms: _38  and  _41
REMARK   18  A    between atoms: _41  and  _42
REMARK   19  A    between atoms: _45  and  _47
REMARK   20  A    between atoms: _47  and  _48
REMARK   21  A    between atoms: _47  and  _50
REMARK   22  A    between atoms: _50  and  _51
REMARK   23  A    between atoms: _54  and  _56
REMARK   24  A    between atoms: _56  and  _57
REMARK   25  A    between atoms: _59  and  _61
REMARK   26  A    between atoms: _61  and  _62
REMARK   27  A    between atoms: _65  and  _67
REMARK   28  A    between atoms: _67  and  _68
REMARK   29  A    between atoms: _67  and  _70
REMARK   30  A    between atoms: _70  and  _71
REMARK   31  A    between atoms: _74  and  _76
REMARK   32  A    between atoms: _76  and  _77
REMARK   33  A    between atoms: _76  and  _79
REMARK   34  A    between atoms: _79  and  _80
REMARK   35  A    between atoms: _83  and  _85
REMARK   36  A    between atoms: _85  and  _86
REMARK   37  A    between atoms: _85  and  _88
REMARK   38  A    between atoms: _88  and  _89
REMARK   39  A    between atoms: _92  and  _94
REMARK   40  A    between atoms: _94  and  _95
REMARK   41  A    between atoms: _94  and  _97
REMARK   42  A    between atoms: _100  and  _102
REMARK   43  A    between atoms: _102  and  _103
REMARK   44  A    between atoms: _102  and  _105
REMARK   45  A    between atoms: _105  and  _106
REMARK   46  A    between atoms: _106  and  _107
REMARK   47  A    between atoms: _107  and  _108
REMARK   48  A    between atoms: _108  and  _109
REMARK   49  A    between atoms: _113  and  _115
REMARK   50  A    between atoms: _115  and  _116
REMARK   51  A    between atoms: _115  and  _118
REMARK   52  A    between atoms: _118  and  _119
REMARK   53  A    between atoms: _119  and  _120
REMARK   54  A    between atoms: _122  and  _124
REMARK   55  A    between atoms: _124  and  _125
REMARK   56  A    between atoms: _124  and  _127
REMARK   57  A    between atoms: _127  and  _128
REMARK   58  A    between atoms: _131  and  _133
REMARK   59  A    between atoms: _133  and  _134
REMARK   60  A    between atoms: _136  and  _138
REMARK   61  A    between atoms: _138  and  _139
REMARK   62  A    between atoms: _141  and  _143
REMARK   63  A    between atoms: _143  and  _144
REMARK   64  A    between atoms: _143  and  _146
REMARK   65  A    between atoms: _146  and  _147
REMARK   66  A    between atoms: _150  and  _152
REMARK   67  A    between atoms: _152  and  _153
REMARK   68  A    between atoms: _155  and  _157
REMARK   69  A    between atoms: _157  and  _158
REMARK   70  A    between atoms: _160  and  _162
REMARK   71  A    between atoms: _162  and  _163
REMARK   72  A    between atoms: _162  and  _165
REMARK   73  A    between atoms: _165  and  _166
REMARK   74  A    between atoms: _172  and  _174
REMARK   75  A    between atoms: _174  and  _175
REMARK   76  A    between atoms: _174  and  _177
REMARK   77  A    between atoms: _177  and  _178
REMARK   78  A    between atoms: _181  and  _183
REMARK   79  A    between atoms: _183  and  _184
REMARK   80  A    between atoms: _183  and  _186
REMARK   81  A    between atoms: _189  and  _191
REMARK   82  A    between atoms: _191  and  _192
REMARK   83  A    between atoms: _191  and  _194
REMARK   84  A    between atoms: _197  and  _199
REMARK   85  A    between atoms: _199  and  _200
REMARK   86  A    between atoms: _199  and  _202
REMARK   87  A    between atoms: _202  and  _203
REMARK   88  A    between atoms: _207  and  _208
REMARK   89  A    between atoms: _213  and  _215
REMARK   90  A    between atoms: _215  and  _216
REMARK   91  A    between atoms: _215  and  _218
REMARK   92  A    between atoms: _221  and  _223
REMARK   93  A    between atoms: _223  and  _224
REMARK   94  A    between atoms: _223  and  _226
REMARK   95  A    between atoms: _226  and  _227
REMARK   96  A    between atoms: _232  and  _234
REMARK   97  A    between atoms: _234  and  _235
REMARK   98  A    between atoms: _234  and  _237
REMARK   99  A    between atoms: _237  and  _238
REMARK  100  A    between atoms: _241  and  _243
REMARK  101  A    between atoms: _243  and  _244
REMARK  102  A    between atoms: _243  and  _246
REMARK  103  A    between atoms: _246  and  _247
REMARK  104  A    between atoms: _250  and  _252
REMARK  105  A    between atoms: _252  and  _253
REMARK  106  A    between atoms: _255  and  _257
REMARK  107  A    between atoms: _257  and  _258
REMARK  108  A    between atoms: _257  and  _260
REMARK  109  A    between atoms: _260  and  _261
REMARK  110  A    between atoms: _261  and  _262
REMARK  111  A    between atoms: _262  and  _263
REMARK  112  A    between atoms: _272  and  _274
REMARK  113  A    between atoms: _274  and  _275
REMARK  114  A    between atoms: _274  and  _277
REMARK  115  A    between atoms: _277  and  _278
REMARK  116  A    between atoms: _283  and  _285
REMARK  117  A    between atoms: _285  and  _286
REMARK  118  A    between atoms: _285  and  _288
REMARK  119  A    between atoms: _288  and  _289
REMARK  120  A    between atoms: _289  and  _290
REMARK  121  A    between atoms: _290  and  _291
REMARK  122  A    between atoms: _300  and  _302
REMARK  123  A    between atoms: _302  and  _303
REMARK  124  A    between atoms: _302  and  _305
REMARK  125  A    between atoms: _305  and  _306
REMARK  126  A    between atoms: _309  and  _311
REMARK  127  A    between atoms: _311  and  _312
REMARK  128  A    between atoms: _311  and  _314
REMARK  129  A    between atoms: _314  and  _315
REMARK  130  A    between atoms: _318  and  _320
REMARK  131  A    between atoms: _320  and  _321
REMARK  132  A    between atoms: _320  and  _323
REMARK  133  A    between atoms: _323  and  _324
REMARK  134  A    between atoms: _327  and  _329
REMARK  135  A    between atoms: _329  and  _330
REMARK  136  A    between atoms: _329  and  _332
REMARK  137  A    between atoms: _332  and  _333
REMARK  138  A    between atoms: _336  and  _338
REMARK  139  A    between atoms: _338  and  _339
REMARK  140  A    between atoms: _341  and  _343
REMARK  141  A    between atoms: _343  and  _344
REMARK  142  A    between atoms: _347  and  _349
REMARK  143  A    between atoms: _349  and  _350
REMARK  144  A    between atoms: _349  and  _352
REMARK  145  A    between atoms: _352  and  _353
REMARK  146  A    between atoms: _356  and  _358
REMARK  147  A    between atoms: _358  and  _359
REMARK  148  A    between atoms: _358  and  _361
REMARK  149  A    between atoms: _361  and  _362
REMARK  150  A    between atoms: _365  and  _367
REMARK  151  A    between atoms: _367  and  _368
REMARK  152  A    between atoms: _367  and  _370
REMARK  153  A    between atoms: _370  and  _371
REMARK  154  A    between atoms: _374  and  _376
REMARK  155  A    between atoms: _376  and  _377
REMARK  156  A    between atoms: _376  and  _379
REMARK  157  A    between atoms: _382  and  _384
REMARK  158  A    between atoms: _384  and  _385
REMARK  159  A    between atoms: _384  and  _387
REMARK  160  A    between atoms: _387  and  _388
REMARK  161  A    between atoms: _388  and  _389
REMARK  162  A    between atoms: _389  and  _390
REMARK  163  A    between atoms: _390  and  _391
REMARK  164  A    between atoms: _395  and  _397
REMARK  165  A    between atoms: _397  and  _398
REMARK  166  A    between atoms: _397  and  _400
REMARK  167  A    between atoms: _400  and  _401
REMARK  168  A    between atoms: _401  and  _402
REMARK  169  A    between atoms: _404  and  _406
REMARK  170  A    between atoms: _406  and  _407
REMARK  171  A    between atoms: _406  and  _409
REMARK  172  A    between atoms: _409  and  _410
REMARK  173  A    between atoms: _413  and  _415
REMARK  174  A    between atoms: _415  and  _416
REMARK  175  A    between atoms: _418  and  _420
REMARK  176  A    between atoms: _420  and  _421
REMARK  177  A    between atoms: _423  and  _425
REMARK  178  A    between atoms: _425  and  _426
REMARK  179  A    between atoms: _425  and  _428
REMARK  180  A    between atoms: _428  and  _429
REMARK  181  A    between atoms: _432  and  _434
REMARK  182  A    between atoms: _434  and  _435
REMARK  183  A    between atoms: _437  and  _439
REMARK  184  A    between atoms: _439  and  _440
REMARK  185  A    between atoms: _442  and  _444
REMARK  186  A    between atoms: _444  and  _445
REMARK  187  A    between atoms: _444  and  _447
REMARK  188  A    between atoms: _447  and  _448
REMARK  189  A    between atoms: _454  and  _456
REMARK  190  A    between atoms: _456  and  _457
REMARK  191  A    between atoms: _456  and  _459
REMARK  192  A    between atoms: _459  and  _460
REMARK  193  A    between atoms: _463  and  _465
REMARK  194  A    between atoms: _465  and  _466
REMARK  195  A    between atoms: _465  and  _468
REMARK  196  A    between atoms: _471  and  _473
REMARK  197  A    between atoms: _473  and  _474
REMARK  198  A    between atoms: _473  and  _476
REMARK  199  A    between atoms: _479  and  _481
REMARK  200  A    between atoms: _481  and  _482
REMARK  201  A    between atoms: _481  and  _484
REMARK  202  A    between atoms: _484  and  _485
REMARK  203  A    between atoms: _489  and  _490
REMARK  204  A    between atoms: _495  and  _497
REMARK  205  A    between atoms: _497  and  _498
REMARK  206  A    between atoms: _497  and  _500
REMARK  207  A    between atoms: _503  and  _505
REMARK  208  A    between atoms: _505  and  _506
REMARK  209  A    between atoms: _505  and  _508
REMARK  210  A    between atoms: _508  and  _509
REMARK  211  A    between atoms: _514  and  _516
REMARK  212  A    between atoms: _516  and  _517
REMARK  213  A    between atoms: _516  and  _519
REMARK  214  A    between atoms: _519  and  _520
REMARK  215  A    between atoms: _523  and  _525
REMARK  216  A    between atoms: _525  and  _526
REMARK  217  A    between atoms: _525  and  _528
REMARK  218  A    between atoms: _528  and  _529
REMARK  219  A    between atoms: _532  and  _534
REMARK  220  A    between atoms: _534  and  _535
REMARK  221  A    between atoms: _537  and  _539
REMARK  222  A    between atoms: _539  and  _540
REMARK  223  A    between atoms: _539  and  _542
REMARK  224  A    between atoms: _542  and  _543
REMARK  225  A    between atoms: _543  and  _544
REMARK  226  A    between atoms: _544  and  _545
REMARK  227  A    between atoms: _554  and  _556
REMARK  228  A    between atoms: _556  and  _557
REMARK  229  A    between atoms: _556  and  _559
REMARK  230  A    between atoms: _559  and  _560
REMARK                            x       y       z     vdW  Elec       q    Type
REMARK                         _______ _______ _______ _____ _____    ______ ____
ROOT
ATOM      1  O   HOH     1       4.404   9.934  15.607  0.00  0.00    +0.000 OA
ENDROOT
TORSDOF 0
REMARK  Name = ../refined-set-2016/3pwm/3pwm_pocket.pdb
REMARK  230 active torsions:
REMARK  status: ('A' for Active; 'I' for Inactive)
REMARK    1  A    between atoms: _1  and  _3
REMARK    2  A    between atoms: _3  and  _4
REMARK    3  A    between atoms: _3  and  _6
REMARK    4  A    between atoms: _6  and  _7
REMARK    5  A    between atoms: _7  and  _8
REMARK    6  A    between atoms: _8  and  _9
REMARK    7  A    between atoms: _18  and  _20
REMARK    8  A    between atoms: _20  and  _21
REMARK    9  A    between atoms: _20  and  _23
REMARK   10  A    between atoms: _23  and  _24
REMARK   11  A    between atoms: _27  and  _29
REMARK   12  A    between atoms: _29  and  _30
REMARK   13  A    between atoms: _29  and  _32
REMARK   14  A    between atoms: _32  and  _33
REMARK   15  A    between atoms: _36  and  _38
REMARK   16  A    between atoms: _38  and  _39
REMARK   17  A    between atoms: _38  and  _41
REMARK   18  A    between atoms: _41  and  _42
REMARK   19  A    between atoms: _45  and  _47
REMARK   20  A    between atoms: _47  and  _48
REMARK   21  A    between atoms: _47  and  _50
REMARK   22  A    between atoms: _50  and  _51
REMARK   23  A    between atoms: _54  and  _56
REMARK   24  A    between atoms: _56  and  _57
REMARK   25  A    between atoms: _59  and  _61
REMARK   26  A    between atoms: _61  and  _62
REMARK   27  A    between atoms: _65  and  _67
REMARK   28  A    between atoms: _67  and  _68
REMARK   29  A    between atoms: _67  and  _70
REMARK   30  A    between atoms: _70  and  _71
REMARK   31  A    between atoms: _74  and  _76
REMARK   32  A    between atoms: _76  and  _77
REMARK   33  A    between atoms: _76  and  _79
REMARK   34  A    between atoms: _79  and  _80
REMARK   35  A    between atoms: _83  and  _85
REMARK   36  A    between atoms: _85  and  _86
REMARK   37  A    between atoms: _85  and  _88
REMARK   38  A    between atoms: _88  and  _89
REMARK   39  A    between atoms: _92  and  _94
REMARK   40  A    between atoms: _94  and  _95
REMARK   41  A    between atoms: _94  and  _97
REMARK   42  A    between atoms: _100  and  _102
REMARK   43  A    between atoms: _102  and  _103
REMARK   44  A    between atoms: _102  and  _105
REMARK   45  A    between atoms: _105  and  _106
REMARK   46  A    between atoms: _106  and  _107
REMARK   47  A    between atoms: _107  and  _108
REMARK   48  A    between atoms: _108  and  _109
REMARK   49  A    between atoms: _113  and  _115
REMARK   50  A    between atoms: _115  and  _116
REMARK   51  A    between atoms: _115  and  _118
REMARK   52  A    between atoms: _118  and  _119
REMARK   53  A    between atoms: _119  and  _120
REMARK   54  A    between atoms: _122  and  _124
REMARK   55  A    between atoms: _124  and  _125
REMARK   56  A    between atoms: _124  and  _127
REMARK   57  A    between atoms: _127  and  _128
REMARK   58  A    between atoms: _131  and  _133
REMARK   59  A    between atoms: _133  and  _134
REMARK   60  A    between atoms: _136  and  _138
REMARK   61  A    between atoms: _138  and  _139
REMARK   62  A    between atoms: _141  and  _143
REMARK   63  A    between atoms: _143  and  _144
REMARK   64  A    between atoms: _143  and  _146
REMARK   65  A    between atoms: _146  and  _147
REMARK   66  A    between atoms: _150  and  _152
REMARK   67  A    between atoms: _152  and  _153
REMARK   68  A    between atoms: _155  and  _157
REMARK   69  A    between atoms: _157  and  _158
REMARK   70  A    between atoms: _160  and  _162
REMARK   71  A    between atoms: _162  and  _163
REMARK   72  A    between atoms: _162  and  _165
REMARK   73  A    between atoms: _165  and  _166
REMARK   74  A    between atoms: _172  and  _174
REMARK   75  A    between atoms: _174  and  _175
REMARK   76  A    between atoms: _174  and  _177
REMARK   77  A    between atoms: _177  and  _178
REMARK   78  A    between atoms: _181  and  _183
REMARK   79  A    between atoms: _183  and  _184
REMARK   80  A    between atoms: _183  and  _186
REMARK   81  A    between atoms: _189  and  _191
REMARK   82  A    between atoms: _191  and  _192
REMARK   83  A    between atoms: _191  and  _194
REMARK   84  A    between atoms: _197  and  _199
REMARK   85  A    between atoms: _199  and  _200
REMARK   86  A    between atoms: _199  and  _202
REMARK   87  A    between atoms: _202  and  _203
REMARK   88  A    between atoms: _207  and  _208
REMARK   89  A    between atoms: _213  and  _215
REMARK   90  A    between atoms: _215  and  _216
REMARK   91  A    between atoms: _215  and  _218
REMARK   92  A    between atoms: _221  and  _223
REMARK   93  A    between atoms: _223  and  _224
REMARK   94  A    between atoms: _223  and  _226
REMARK   95  A    between atoms: _226  and  _227
REMARK   96  A    between atoms: _232  and  _234
REMARK   97  A    between atoms: _234  and  _235
REMARK   98  A    between atoms: _234  and  _237
REMARK   99  A    between atoms: _237  and  _238
REMARK  100  A    between atoms: _241  and  _243
REMARK  101  A    between atoms: _243  and  _244
REMARK  102  A    between atoms: _243  and  _246
REMARK  103  A    between atoms: _246  and  _247
REMARK  104  A    between atoms: _250  and  _252
REMARK  105  A    between atoms: _252  and  _253
REMARK  106  A    between atoms: _255  and  _257
REMARK  107  A    between atoms: _257  and  _258
REMARK  108  A    between atoms: _257  and  _260
REMARK  109  A    between atoms: _260  and  _261
REMARK  110  A    between atoms: _261  and  _262
REMARK  111  A    between atoms: _262  and  _263
REMARK  112  A    between atoms: _272  and  _274
REMARK  113  A    between atoms: _274  and  _275
REMARK  114  A    between atoms: _274  and  _277
REMARK  115  A    between atoms: _277  and  _278
REMARK  116  A    between atoms: _283  and  _285
REMARK  117  A    between atoms: _285  and  _286
REMARK  118  A    between atoms: _285  and  _288
REMARK  119  A    between atoms: _288  and  _289
REMARK  120  A    between atoms: _289  and  _290
REMARK  121  A    between atoms: _290  and  _291
REMARK  122  A    between atoms: _300  and  _302
REMARK  123  A    between atoms: _302  and  _303
REMARK  124  A    between atoms: _302  and  _305
REMARK  125  A    between atoms: _305  and  _306
REMARK  126  A    between atoms: _309  and  _311
REMARK  127  A    between atoms: _311  and  _312
REMARK  128  A    between atoms: _311  and  _314
REMARK  129  A    between atoms: _314  and  _315
REMARK  130  A    between atoms: _318  and  _320
REMARK  131  A    between atoms: _320  and  _321
REMARK  132  A    between atoms: _320  and  _323
REMARK  133  A    between atoms: _323  and  _324
REMARK  134  A    between atoms: _327  and  _329
REMARK  135  A    between atoms: _329  and  _330
REMARK  136  A    between atoms: _329  and  _332
REMARK  137  A    between atoms: _332  and  _333
REMARK  138  A    between atoms: _336  and  _338
REMARK  139  A    between atoms: _338  and  _339
REMARK  140  A    between atoms: _341  and  _343
REMARK  141  A    between atoms: _343  and  _344
REMARK  142  A    between atoms: _347  and  _349
REMARK  143  A    between atoms: _349  and  _350
REMARK  144  A    between atoms: _349  and  _352
REMARK  145  A    between atoms: _352  and  _353
REMARK  146  A    between atoms: _356  and  _358
REMARK  147  A    between atoms: _358  and  _359
REMARK  148  A    between atoms: _358  and  _361
REMARK  149  A    between atoms: _361  and  _362
REMARK  150  A    between atoms: _365  and  _367
REMARK  151  A    between atoms: _367  and  _368
REMARK  152  A    between atoms: _367  and  _370
REMARK  153  A    between atoms: _370  and  _371
REMARK  154  A    between atoms: _374  and  _376
REMARK  155  A    between atoms: _376  and  _377
REMARK  156  A    between atoms: _376  and  _379
REMARK  157  A    between atoms: _382  and  _384
REMARK  158  A    between atoms: _384  and  _385
REMARK  159  A    between atoms: _384  and  _387
REMARK  160  A    between atoms: _387  and  _388
REMARK  161  A    between atoms: _388  and  _389
REMARK  162  A    between atoms: _389  and  _390
REMARK  163  A    between atoms: _390  and  _391
REMARK  164  A    between atoms: _395  and  _397
REMARK  165  A    between atoms: _397  and  _398
REMARK  166  A    between atoms: _397  and  _400
REMARK  167  A    between atoms: _400  and  _401
REMARK  168  A    between atoms: _401  and  _402
REMARK  169  A    between atoms: _404  and  _406
REMARK  170  A    between atoms: _406  and  _407
REMARK  171  A    between atoms: _406  and  _409
REMARK  172  A    between atoms: _409  and  _410
REMARK  173  A    between atoms: _413  and  _415
REMARK  174  A    between atoms: _415  and  _416
REMARK  175  A    between atoms: _418  and  _420
REMARK  176  A    between atoms: _420  and  _421
REMARK  177  A    between atoms: _423  and  _425
REMARK  178  A    between atoms: _425  and  _426
REMARK  179  A    between atoms: _425  and  _428
REMARK  180  A    between atoms: _428  and  _429
REMARK  181  A    between atoms: _432  and  _434
REMARK  182  A    between atoms: _434  and  _435
REMARK  183  A    between atoms: _437  and  _439
REMARK  184  A    between atoms: _439  and  _440
REMARK  185  A    between atoms: _442  and  _444
REMARK  186  A    between atoms: _444  and  _445
REMARK  187  A    between atoms: _444  and  _447
REMARK  188  A    between atoms: _447  and  _448
REMARK  189  A    between atoms: _454  and  _456
REMARK  190  A    between atoms: _456  and  _457
REMARK  191  A    between atoms: _456  and  _459
REMARK  192  A    between atoms: _459  and  _460
REMARK  193  A    between atoms: _463  and  _465
REMARK  194  A    between atoms: _465  and  _466
REMARK  195  A    between atoms: _465  and  _468
REMARK  196  A    between atoms: _471  and  _473
REMARK  197  A    between atoms: _473  and  _474
REMARK  198  A    between atoms: _473  and  _476
REMARK  199  A    between atoms: _479  and  _481
REMARK  200  A    between atoms: _481  and  _482
REMARK  201  A    between atoms: _481  and  _484
REMARK  202  A    between atoms: _484  and  _485
REMARK  203  A    between atoms: _489  and  _490
REMARK  204  A    between atoms: _495  and  _497
REMARK  205  A    between atoms: _497  and  _498
REMARK  206  A    between atoms: _497  and  _500
REMARK  207  A    between atoms: _503  and  _505
REMARK  208  A    between atoms: _505  and  _506
REMARK  209  A    between atoms: _505  and  _508
REMARK  210  A    between atoms: _508  and  _509
REMARK  211  A    between atoms: _514  and  _516
REMARK  212  A    between atoms: _516  and  _517
REMARK  213  A    between atoms: _516  and  _519
REMARK  214  A    between atoms: _519  and  _520
REMARK  215  A    between atoms: _523  and  _525
REMARK  216  A    between atoms: _525  and  _526
REMARK  217  A    between atoms: _525  and  _528
REMARK  218  A    between atoms: _528  and  _529
REMARK  219  A    between atoms: _532  and  _534
REMARK  220  A    between atoms: _534  and  _535
REMARK  221  A    between atoms: _537  and  _539
REMARK  222  A    between atoms: _539  and  _540
REMARK  223  A    between atoms: _539  and  _542
REMARK  224  A    between atoms: _542  and  _543
REMARK  225  A    between atoms: _543  and  _544
REMARK  226  A    between atoms: _544  and  _545
REMARK  227  A    between atoms: _554  and  _556
REMARK  228  A    between atoms: _556  and  _557
REMARK  229  A    between atoms: _556  and  _559
REMARK  230  A    between atoms: _559  and  _560
REMARK                            x       y       z     vdW  Elec       q    Type
REMARK                         _______ _______ _______ _____ _____    ______ ____
ROOT
ATOM      1  O   HOH     1       5.897   8.928  11.785  0.00  0.00    +0.000 OA
ENDROOT
TORSDOF 0
REMARK  Name = ../refined-set-2016/3pwm/3pwm_pocket.pdb
REMARK  230 active torsions:
REMARK  status: ('A' for Active; 'I' for Inactive)
REMARK    1  A    between atoms: _1  and  _3
REMARK    2  A    between atoms: _3  and  _4
REMARK    3  A    between atoms: _3  and  _6
REMARK    4  A    between atoms: _6  and  _7
REMARK    5  A    between atoms: _7  and  _8
REMARK    6  A    between atoms: _8  and  _9
REMARK    7  A    between atoms: _18  and  _20
REMARK    8  A    between atoms: _20  and  _21
REMARK    9  A    between atoms: _20  and  _23
REMARK   10  A    between atoms: _23  and  _24
REMARK   11  A    between atoms: _27  and  _29
REMARK   12  A    between atoms: _29  and  _30
REMARK   13  A    between atoms: _29  and  _32
REMARK   14  A    between atoms: _32  and  _33
REMARK   15  A    between atoms: _36  and  _38
REMARK   16  A    between atoms: _38  and  _39
REMARK   17  A    between atoms: _38  and  _41
REMARK   18  A    between atoms: _41  and  _42
REMARK   19  A    between atoms: _45  and  _47
REMARK   20  A    between atoms: _47  and  _48
REMARK   21  A    between atoms: _47  and  _50
REMARK   22  A    between atoms: _50  and  _51
REMARK   23  A    between atoms: _54  and  _56
REMARK   24  A    between atoms: _56  and  _57
REMARK   25  A    between atoms: _59  and  _61
REMARK   26  A    between atoms: _61  and  _62
REMARK   27  A    between atoms: _65  and  _67
REMARK   28  A    between atoms: _67  and  _68
REMARK   29  A    between atoms: _67  and  _70
REMARK   30  A    between atoms: _70  and  _71
REMARK   31  A    between atoms: _74  and  _76
REMARK   32  A    between atoms: _76  and  _77
REMARK   33  A    between atoms: _76  and  _79
REMARK   34  A    between atoms: _79  and  _80
REMARK   35  A    between atoms: _83  and  _85
REMARK   36  A    between atoms: _85  and  _86
REMARK   37  A    between atoms: _85  and  _88
REMARK   38  A    between atoms: _88  and  _89
REMARK   39  A    between atoms: _92  and  _94
REMARK   40  A    between atoms: _94  and  _95
REMARK   41  A    between atoms: _94  and  _97
REMARK   42  A    between atoms: _100  and  _102
REMARK   43  A    between atoms: _102  and  _103
REMARK   44  A    between atoms: _102  and  _105
REMARK   45  A    between atoms: _105  and  _106
REMARK   46  A    between atoms: _106  and  _107
REMARK   47  A    between atoms: _107  and  _108
REMARK   48  A    between atoms: _108  and  _109
REMARK   49  A    between atoms: _113  and  _115
REMARK   50  A    between atoms: _115  and  _116
REMARK   51  A    between atoms: _115  and  _118
REMARK   52  A    between atoms: _118  and  _119
REMARK   53  A    between atoms: _119  and  _120
REMARK   54  A    between atoms: _122  and  _124
REMARK   55  A    between atoms: _124  and  _125
REMARK   56  A    between atoms: _124  and  _127
REMARK   57  A    between atoms: _127  and  _128
REMARK   58  A    between atoms: _131  and  _133
REMARK   59  A    between atoms: _133  and  _134
REMARK   60  A    between atoms: _136  and  _138
REMARK   61  A    between atoms: _138  and  _139
REMARK   62  A    between atoms: _141  and  _143
REMARK   63  A    between atoms: _143  and  _144
REMARK   64  A    between atoms: _143  and  _146
REMARK   65  A    between atoms: _146  and  _147
REMARK   66  A    between atoms: _150  and  _152
REMARK   67  A    between atoms: _152  and  _153
REMARK   68  A    between atoms: _155  and  _157
REMARK   69  A    between atoms: _157  and  _158
REMARK   70  A    between atoms: _160  and  _162
REMARK   71  A    between atoms: _162  and  _163
REMARK   72  A    between atoms: _162  and  _165
REMARK   73  A    between atoms: _165  and  _166
REMARK   74  A    between atoms: _172  and  _174
REMARK   75  A    between atoms: _174  and  _175
REMARK   76  A    between atoms: _174  and  _177
REMARK   77  A    between atoms: _177  and  _178
REMARK   78  A    between atoms: _181  and  _183
REMARK   79  A    between atoms: _183  and  _184
REMARK   80  A    between atoms: _183  and  _186
REMARK   81  A    between atoms: _189  and  _191
REMARK   82  A    between atoms: _191  and  _192
REMARK   83  A    between atoms: _191  and  _194
REMARK   84  A    between atoms: _197  and  _199
REMARK   85  A    between atoms: _199  and  _200
REMARK   86  A    between atoms: _199  and  _202
REMARK   87  A    between atoms: _202  and  _203
REMARK   88  A    between atoms: _207  and  _208
REMARK   89  A    between atoms: _213  and  _215
REMARK   90  A    between atoms: _215  and  _216
REMARK   91  A    between atoms: _215  and  _218
REMARK   92  A    between atoms: _221  and  _223
REMARK   93  A    between atoms: _223  and  _224
REMARK   94  A    between atoms: _223  and  _226
REMARK   95  A    between atoms: _226  and  _227
REMARK   96  A    between atoms: _232  and  _234
REMARK   97  A    between atoms: _234  and  _235
REMARK   98  A    between atoms: _234  and  _237
REMARK   99  A    between atoms: _237  and  _238
REMARK  100  A    between atoms: _241  and  _243
REMARK  101  A    between atoms: _243  and  _244
REMARK  102  A    between atoms: _243  and  _246
REMARK  103  A    between atoms: _246  and  _247
REMARK  104  A    between atoms: _250  and  _252
REMARK  105  A    between atoms: _252  and  _253
REMARK  106  A    between atoms: _255  and  _257
REMARK  107  A    between atoms: _257  and  _258
REMARK  108  A    between atoms: _257  and  _260
REMARK  109  A    between atoms: _260  and  _261
REMARK  110  A    between atoms: _261  and  _262
REMARK  111  A    between atoms: _262  and  _263
REMARK  112  A    between atoms: _272  and  _274
REMARK  113  A    between atoms: _274  and  _275
REMARK  114  A    between atoms: _274  and  _277
REMARK  115  A    between atoms: _277  and  _278
REMARK  116  A    between atoms: _283  and  _285
REMARK  117  A    between atoms: _285  and  _286
REMARK  118  A    between atoms: _285  and  _288
REMARK  119  A    between atoms: _288  and  _289
REMARK  120  A    between atoms: _289  and  _290
REMARK  121  A    between atoms: _290  and  _291
REMARK  122  A    between atoms: _300  and  _302
REMARK  123  A    between atoms: _302  and  _303
REMARK  124  A    between atoms: _302  and  _305
REMARK  125  A    between atoms: _305  and  _306
REMARK  126  A    between atoms: _309  and  _311
REMARK  127  A    between atoms: _311  and  _312
REMARK  128  A    between atoms: _311  and  _314
REMARK  129  A    between atoms: _314  and  _315
REMARK  130  A    between atoms: _318  and  _320
REMARK  131  A    between atoms: _320  and  _321
REMARK  132  A    between atoms: _320  and  _323
REMARK  133  A    between atoms: _323  and  _324
REMARK  134  A    between atoms: _327  and  _329
REMARK  135  A    between atoms: _329  and  _330
REMARK  136  A    between atoms: _329  and  _332
REMARK  137  A    between atoms: _332  and  _333
REMARK  138  A    between atoms: _336  and  _338
REMARK  139  A    between atoms: _338  and  _339
REMARK  140  A    between atoms: _341  and  _343
REMARK  141  A    between atoms: _343  and  _344
REMARK  142  A    between atoms: _347  and  _349
REMARK  143  A    between atoms: _349  and  _350
REMARK  144  A    between atoms: _349  and  _352
REMARK  145  A    between atoms: _352  and  _353
REMARK  146  A    between atoms: _356  and  _358
REMARK  147  A    between atoms: _358  and  _359
REMARK  148  A    between atoms: _358  and  _361
REMARK  149  A    between atoms: _361  and  _362
REMARK  150  A    between atoms: _365  and  _367
REMARK  151  A    between atoms: _367  and  _368
REMARK  152  A    between atoms: _367  and  _370
REMARK  153  A    between atoms: _370  and  _371
REMARK  154  A    between atoms: _374  and  _376
REMARK  155  A    between atoms: _376  and  _377
REMARK  156  A    between atoms: _376  and  _379
REMARK  157  A    between atoms: _382  and  _384
REMARK  158  A    between atoms: _384  and  _385
REMARK  159  A    between atoms: _384  and  _387
REMARK  160  A    between atoms: _387  and  _388
REMARK  161  A    between atoms: _388  and  _389
REMARK  162  A    between atoms: _389  and  _390
REMARK  163  A    between atoms: _390  and  _391
REMARK  164  A    between atoms: _395  and  _397
REMARK  165  A    between atoms: _397  and  _398
REMARK  166  A    between atoms: _397  and  _400
REMARK  167  A    between atoms: _400  and  _401
REMARK  168  A    between atoms: _401  and  _402
REMARK  169  A    between atoms: _404  and  _406
REMARK  170  A    between atoms: _406  and  _407
REMARK  171  A    between atoms: _406  and  _409
REMARK  172  A    between atoms: _409  and  _410
REMARK  173  A    between atoms: _413  and  _415
REMARK  174  A    between atoms: _415  and  _416
REMARK  175  A    between atoms: _418  and  _420
REMARK  176  A    between atoms: _420  and  _421
REMARK  177  A    between atoms: _423  and  _425
REMARK  178  A    between atoms: _425  and  _426
REMARK  179  A    between atoms: _425  and  _428
REMARK  180  A    between atoms: _428  and  _429
REMARK  181  A    between atoms: _432  and  _434
REMARK  182  A    between atoms: _434  and  _435
REMARK  183  A    between atoms: _437  and  _439
REMARK  184  A    between atoms: _439  and  _440
REMARK  185  A    between atoms: _442  and  _444
REMARK  186  A    between atoms: _444  and  _445
REMARK  187  A    between atoms: _444  and  _447
REMARK  188  A    between atoms: _447  and  _448
REMARK  189  A    between atoms: _454  and  _456
REMARK  190  A    between atoms: _456  and  _457
REMARK  191  A    between atoms: _456  and  _459
REMARK  192  A    between atoms: _459  and  _460
REMARK  193  A    between atoms: _463  and  _465
REMARK  194  A    between atoms: _465  and  _466
REMARK  195  A    between atoms: _465  and  _468
REMARK  196  A    between atoms: _471  and  _473
REMARK  197  A    between atoms: _473  and  _474
REMARK  198  A    between atoms: _473  and  _476
REMARK  199  A    between atoms: _479  and  _481
REMARK  200  A    between atoms: _481  and  _482
REMARK  201  A    between atoms: _481  and  _484
REMARK  202  A    between atoms: _484  and  _485
REMARK  203  A    between atoms: _489  and  _490
REMARK  204  A    between atoms: _495  and  _497
REMARK  205  A    between atoms: _497  and  _498
REMARK  206  A    between atoms: _497  and  _500
REMARK  207  A    between atoms: _503  and  _505
REMARK  208  A    between atoms: _505  and  _506
REMARK  209  A    between atoms: _505  and  _508
REMARK  210  A    between atoms: _508  and  _509
REMARK  211  A    between atoms: _514  and  _516
REMARK  212  A    between atoms: _516  and  _517
REMARK  213  A    between atoms: _516  and  _519
REMARK  214  A    between atoms: _519  and  _520
REMARK  215  A    between atoms: _523  and  _525
REMARK  216  A    between atoms: _525  and  _526
REMARK  217  A    between atoms: _525  and  _528
REMARK  218  A    between atoms: _528  and  _529
REMARK  219  A    between atoms: _532  and  _534
REMARK  220  A    between atoms: _534  and  _535
REMARK  221  A    between atoms: _537  and  _539
REMARK  222  A    between atoms: _539  and  _540
REMARK  223  A    between atoms: _539  and  _542
REMARK  224  A    between atoms: _542  and  _543
REMARK  225  A    between atoms: _543  and  _544
REMARK  226  A    between atoms: _544  and  _545
REMARK  227  A    between atoms: _554  and  _556
REMARK  228  A    between atoms: _556  and  _557
REMARK  229  A    between atoms: _556  and  _559
REMARK  230  A    between atoms: _559  and  _560
REMARK                            x       y       z     vdW  Elec       q    Type
REMARK                         _______ _______ _______ _____ _____    ______ ____
ROOT
ATOM      1  O   HOH     1      23.144  24.965  15.267  0.00  0.00    +0.000 OA
ENDROOT
TORSDOF 0
REMARK  Name = ../refined-set-2016/3pwm/3pwm_pocket.pdb
REMARK  230 active torsions:
REMARK  status: ('A' for Active; 'I' for Inactive)
REMARK    1  A    between atoms: _1  and  _3
REMARK    2  A    between atoms: _3  and  _4
REMARK    3  A    between atoms: _3  and  _6
REMARK    4  A    between atoms: _6  and  _7
REMARK    5  A    between atoms: _7  and  _8
REMARK    6  A    between atoms: _8  and  _9
REMARK    7  A    between atoms: _18  and  _20
REMARK    8  A    between atoms: _20  and  _21
REMARK    9  A    between atoms: _20  and  _23
REMARK   10  A    between atoms: _23  and  _24
REMARK   11  A    between atoms: _27  and  _29
REMARK   12  A    between atoms: _29  and  _30
REMARK   13  A    between atoms: _29  and  _32
REMARK   14  A    between atoms: _32  and  _33
REMARK   15  A    between atoms: _36  and  _38
REMARK   16  A    between atoms: _38  and  _39
REMARK   17  A    between atoms: _38  and  _41
REMARK   18  A    between atoms: _41  and  _42
REMARK   19  A    between atoms: _45  and  _47
REMARK   20  A    between atoms: _47  and  _48
REMARK   21  A    between atoms: _47  and  _50
REMARK   22  A    between atoms: _50  and  _51
REMARK   23  A    between atoms: _54  and  _56
REMARK   24  A    between atoms: _56  and  _57
REMARK   25  A    between atoms: _59  and  _61
REMARK   26  A    between atoms: _61  and  _62
REMARK   27  A    between atoms: _65  and  _67
REMARK   28  A    between atoms: _67  and  _68
REMARK   29  A    between atoms: _67  and  _70
REMARK   30  A    between atoms: _70  and  _71
REMARK   31  A    between atoms: _74  and  _76
REMARK   32  A    between atoms: _76  and  _77
REMARK   33  A    between atoms: _76  and  _79
REMARK   34  A    between atoms: _79  and  _80
REMARK   35  A    between atoms: _83  and  _85
REMARK   36  A    between atoms: _85  and  _86
REMARK   37  A    between atoms: _85  and  _88
REMARK   38  A    between atoms: _88  and  _89
REMARK   39  A    between atoms: _92  and  _94
REMARK   40  A    between atoms: _94  and  _95
REMARK   41  A    between atoms: _94  and  _97
REMARK   42  A    between atoms: _100  and  _102
REMARK   43  A    between atoms: _102  and  _103
REMARK   44  A    between atoms: _102  and  _105
REMARK   45  A    between atoms: _105  and  _106
REMARK   46  A    between atoms: _106  and  _107
REMARK   47  A    between atoms: _107  and  _108
REMARK   48  A    between atoms: _108  and  _109
REMARK   49  A    between atoms: _113  and  _115
REMARK   50  A    between atoms: _115  and  _116
REMARK   51  A    between atoms: _115  and  _118
REMARK   52  A    between atoms: _118  and  _119
REMARK   53  A    between atoms: _119  and  _120
REMARK   54  A    between atoms: _122  and  _124
REMARK   55  A    between atoms: _124  and  _125
REMARK   56  A    between atoms: _124  and  _127
REMARK   57  A    between atoms: _127  and  _128
REMARK   58  A    between atoms: _131  and  _133
REMARK   59  A    between atoms: _133  and  _134
REMARK   60  A    between atoms: _136  and  _138
REMARK   61  A    between atoms: _138  and  _139
REMARK   62  A    between atoms: _141  and  _143
REMARK   63  A    between atoms: _143  and  _144
REMARK   64  A    between atoms: _143  and  _146
REMARK   65  A    between atoms: _146  and  _147
REMARK   66  A    between atoms: _150  and  _152
REMARK   67  A    between atoms: _152  and  _153
REMARK   68  A    between atoms: _155  and  _157
REMARK   69  A    between atoms: _157  and  _158
REMARK   70  A    between atoms: _160  and  _162
REMARK   71  A    between atoms: _162  and  _163
REMARK   72  A    between atoms: _162  and  _165
REMARK   73  A    between atoms: _165  and  _166
REMARK   74  A    between atoms: _172  and  _174
REMARK   75  A    between atoms: _174  and  _175
REMARK   76  A    between atoms: _174  and  _177
REMARK   77  A    between atoms: _177  and  _178
REMARK   78  A    between atoms: _181  and  _183
REMARK   79  A    between atoms: _183  and  _184
REMARK   80  A    between atoms: _183  and  _186
REMARK   81  A    between atoms: _189  and  _191
REMARK   82  A    between atoms: _191  and  _192
REMARK   83  A    between atoms: _191  and  _194
REMARK   84  A    between atoms: _197  and  _199
REMARK   85  A    between atoms: _199  and  _200
REMARK   86  A    between atoms: _199  and  _202
REMARK   87  A    between atoms: _202  and  _203
REMARK   88  A    between atoms: _207  and  _208
REMARK   89  A    between atoms: _213  and  _215
REMARK   90  A    between atoms: _215  and  _216
REMARK   91  A    between atoms: _215  and  _218
REMARK   92  A    between atoms: _221  and  _223
REMARK   93  A    between atoms: _223  and  _224
REMARK   94  A    between atoms: _223  and  _226
REMARK   95  A    between atoms: _226  and  _227
REMARK   96  A    between atoms: _232  and  _234
REMARK   97  A    between atoms: _234  and  _235
REMARK   98  A    between atoms: _234  and  _237
REMARK   99  A    between atoms: _237  and  _238
REMARK  100  A    between atoms: _241  and  _243
REMARK  101  A    between atoms: _243  and  _244
REMARK  102  A    between atoms: _243  and  _246
REMARK  103  A    between atoms: _246  and  _247
REMARK  104  A    between atoms: _250  and  _252
REMARK  105  A    between atoms: _252  and  _253
REMARK  106  A    between atoms: _255  and  _257
REMARK  107  A    between atoms: _257  and  _258
REMARK  108  A    between atoms: _257  and  _260
REMARK  109  A    between atoms: _260  and  _261
REMARK  110  A    between atoms: _261  and  _262
REMARK  111  A    between atoms: _262  and  _263
REMARK  112  A    between atoms: _272  and  _274
REMARK  113  A    between atoms: _274  and  _275
REMARK  114  A    between atoms: _274  and  _277
REMARK  115  A    between atoms: _277  and  _278
REMARK  116  A    between atoms: _283  and  _285
REMARK  117  A    between atoms: _285  and  _286
REMARK  118  A    between atoms: _285  and  _288
REMARK  119  A    between atoms: _288  and  _289
REMARK  120  A    between atoms: _289  and  _290
REMARK  121  A    between atoms: _290  and  _291
REMARK  122  A    between atoms: _300  and  _302
REMARK  123  A    between atoms: _302  and  _303
REMARK  124  A    between atoms: _302  and  _305
REMARK  125  A    between atoms: _305  and  _306
REMARK  126  A    between atoms: _309  and  _311
REMARK  127  A    between atoms: _311  and  _312
REMARK  128  A    between atoms: _311  and  _314
REMARK  129  A    between atoms: _314  and  _315
REMARK  130  A    between atoms: _318  and  _320
REMARK  131  A    between atoms: _320  and  _321
REMARK  132  A    between atoms: _320  and  _323
REMARK  133  A    between atoms: _323  and  _324
REMARK  134  A    between atoms: _327  and  _329
REMARK  135  A    between atoms: _329  and  _330
REMARK  136  A    between atoms: _329  and  _332
REMARK  137  A    between atoms: _332  and  _333
REMARK  138  A    between atoms: _336  and  _338
REMARK  139  A    between atoms: _338  and  _339
REMARK  140  A    between atoms: _341  and  _343
REMARK  141  A    between atoms: _343  and  _344
REMARK  142  A    between atoms: _347  and  _349
REMARK  143  A    between atoms: _349  and  _350
REMARK  144  A    between atoms: _349  and  _352
REMARK  145  A    between atoms: _352  and  _353
REMARK  146  A    between atoms: _356  and  _358
REMARK  147  A    between atoms: _358  and  _359
REMARK  148  A    between atoms: _358  and  _361
REMARK  149  A    between atoms: _361  and  _362
REMARK  150  A    between atoms: _365  and  _367
REMARK  151  A    between atoms: _367  and  _368
REMARK  152  A    between atoms: _367  and  _370
REMARK  153  A    between atoms: _370  and  _371
REMARK  154  A    between atoms: _374  and  _376
REMARK  155  A    between atoms: _376  and  _377
REMARK  156  A    between atoms: _376  and  _379
REMARK  157  A    between atoms: _382  and  _384
REMARK  158  A    between atoms: _384  and  _385
REMARK  159  A    between atoms: _384  and  _387
REMARK  160  A    between atoms: _387  and  _388
REMARK  161  A    between atoms: _388  and  _389
REMARK  162  A    between atoms: _389  and  _390
REMARK  163  A    between atoms: _390  and  _391
REMARK  164  A    between atoms: _395  and  _397
REMARK  165  A    between atoms: _397  and  _398
REMARK  166  A    between atoms: _397  and  _400
REMARK  167  A    between atoms: _400  and  _401
REMARK  168  A    between atoms: _401  and  _402
REMARK  169  A    between atoms: _404  and  _406
REMARK  170  A    between atoms: _406  and  _407
REMARK  171  A    between atoms: _406  and  _409
REMARK  172  A    between atoms: _409  and  _410
REMARK  173  A    between atoms: _413  and  _415
REMARK  174  A    between atoms: _415  and  _416
REMARK  175  A    between atoms: _418  and  _420
REMARK  176  A    between atoms: _420  and  _421
REMARK  177  A    between atoms: _423  and  _425
REMARK  178  A    between atoms: _425  and  _426
REMARK  179  A    between atoms: _425  and  _428
REMARK  180  A    between atoms: _428  and  _429
REMARK  181  A    between atoms: _432  and  _434
REMARK  182  A    between atoms: _434  and  _435
REMARK  183  A    between atoms: _437  and  _439
REMARK  184  A    between atoms: _439  and  _440
REMARK  185  A    between atoms: _442  and  _444
REMARK  186  A    between atoms: _444  and  _445
REMARK  187  A    between atoms: _444  and  _447
REMARK  188  A    between atoms: _447  and  _448
REMARK  189  A    between atoms: _454  and  _456
REMARK  190  A    between atoms: _456  and  _457
REMARK  191  A    between atoms: _456  and  _459
REMARK  192  A    between atoms: _459  and  _460
REMARK  193  A    between atoms: _463  and  _465
REMARK  194  A    between atoms: _465  and  _466
REMARK  195  A    between atoms: _465  and  _468
REMARK  196  A    between atoms: _471  and  _473
REMARK  197  A    between atoms: _473  and  _474
REMARK  198  A    between atoms: _473  and  _476
REMARK  199  A    between atoms: _479  and  _481
REMARK  200  A    between atoms: _481  and  _482
REMARK  201  A    between atoms: _481  and  _484
REMARK  202  A    between atoms: _484  and  _485
REMARK  203  A    between atoms: _489  and  _490
REMARK  204  A    between atoms: _495  and  _497
REMARK  205  A    between atoms: _497  and  _498
REMARK  206  A    between atoms: _497  and  _500
REMARK  207  A    between atoms: _503  and  _505
REMARK  208  A    between atoms: _505  and  _506
REMARK  209  A    between atoms: _505  and  _508
REMARK  210  A    between atoms: _508  and  _509
REMARK  211  A    between atoms: _514  and  _516
REMARK  212  A    between atoms: _516  and  _517
REMARK  213  A    between atoms: _516  and  _519
REMARK  214  A    between atoms: _519  and  _520
REMARK  215  A    between atoms: _523  and  _525
REMARK  216  A    between atoms: _525  and  _526
REMARK  217  A    between atoms: _525  and  _528
REMARK  218  A    between atoms: _528  and  _529
REMARK  219  A    between atoms: _532  and  _534
REMARK  220  A    between atoms: _534  and  _535
REMARK  221  A    between atoms: _537  and  _539
REMARK  222  A    between atoms: _539  and  _540
REMARK  223  A    between atoms: _539  and  _542
REMARK  224  A    between atoms: _542  and  _543
REMARK  225  A    between atoms: _543  and  _544
REMARK  226  A    between atoms: _544  and  _545
REMARK  227  A    between atoms: _554  and  _556
REMARK  228  A    between atoms: _556  and  _557
REMARK  229  A    between atoms: _556  and  _559
REMARK  230  A    between atoms: _559  and  _560
REMARK                            x       y       z     vdW  Elec       q    Type
REMARK                         _______ _______ _______ _____ _____    ______ ____
ROOT
ATOM      1  O   HOH     1       3.340  18.364  18.410  0.00  0.00    +0.000 OA
ENDROOT
TORSDOF 0
REMARK  Name = ../refined-set-2016/3pwm/3pwm_pocket.pdb
REMARK  230 active torsions:
REMARK  status: ('A' for Active; 'I' for Inactive)
REMARK    1  A    between atoms: _1  and  _3
REMARK    2  A    between atoms: _3  and  _4
REMARK    3  A    between atoms: _3  and  _6
REMARK    4  A    between atoms: _6  and  _7
REMARK    5  A    between atoms: _7  and  _8
REMARK    6  A    between atoms: _8  and  _9
REMARK    7  A    between atoms: _18  and  _20
REMARK    8  A    between atoms: _20  and  _21
REMARK    9  A    between atoms: _20  and  _23
REMARK   10  A    between atoms: _23  and  _24
REMARK   11  A    between atoms: _27  and  _29
REMARK   12  A    between atoms: _29  and  _30
REMARK   13  A    between atoms: _29  and  _32
REMARK   14  A    between atoms: _32  and  _33
REMARK   15  A    between atoms: _36  and  _38
REMARK   16  A    between atoms: _38  and  _39
REMARK   17  A    between atoms: _38  and  _41
REMARK   18  A    between atoms: _41  and  _42
REMARK   19  A    between atoms: _45  and  _47
REMARK   20  A    between atoms: _47  and  _48
REMARK   21  A    between atoms: _47  and  _50
REMARK   22  A    between atoms: _50  and  _51
REMARK   23  A    between atoms: _54  and  _56
REMARK   24  A    between atoms: _56  and  _57
REMARK   25  A    between atoms: _59  and  _61
REMARK   26  A    between atoms: _61  and  _62
REMARK   27  A    between atoms: _65  and  _67
REMARK   28  A    between atoms: _67  and  _68
REMARK   29  A    between atoms: _67  and  _70
REMARK   30  A    between atoms: _70  and  _71
REMARK   31  A    between atoms: _74  and  _76
REMARK   32  A    between atoms: _76  and  _77
REMARK   33  A    between atoms: _76  and  _79
REMARK   34  A    between atoms: _79  and  _80
REMARK   35  A    between atoms: _83  and  _85
REMARK   36  A    between atoms: _85  and  _86
REMARK   37  A    between atoms: _85  and  _88
REMARK   38  A    between atoms: _88  and  _89
REMARK   39  A    between atoms: _92  and  _94
REMARK   40  A    between atoms: _94  and  _95
REMARK   41  A    between atoms: _94  and  _97
REMARK   42  A    between atoms: _100  and  _102
REMARK   43  A    between atoms: _102  and  _103
REMARK   44  A    between atoms: _102  and  _105
REMARK   45  A    between atoms: _105  and  _106
REMARK   46  A    between atoms: _106  and  _107
REMARK   47  A    between atoms: _107  and  _108
REMARK   48  A    between atoms: _108  and  _109
REMARK   49  A    between atoms: _113  and  _115
REMARK   50  A    between atoms: _115  and  _116
REMARK   51  A    between atoms: _115  and  _118
REMARK   52  A    between atoms: _118  and  _119
REMARK   53  A    between atoms: _119  and  _120
REMARK   54  A    between atoms: _122  and  _124
REMARK   55  A    between atoms: _124  and  _125
REMARK   56  A    between atoms: _124  and  _127
REMARK   57  A    between atoms: _127  and  _128
REMARK   58  A    between atoms: _131  and  _133
REMARK   59  A    between atoms: _133  and  _134
REMARK   60  A    between atoms: _136  and  _138
REMARK   61  A    between atoms: _138  and  _139
REMARK   62  A    between atoms: _141  and  _143
REMARK   63  A    between atoms: _143  and  _144
REMARK   64  A    between atoms: _143  and  _146
REMARK   65  A    between atoms: _146  and  _147
REMARK   66  A    between atoms: _150  and  _152
REMARK   67  A    between atoms: _152  and  _153
REMARK   68  A    between atoms: _155  and  _157
REMARK   69  A    between atoms: _157  and  _158
REMARK   70  A    between atoms: _160  and  _162
REMARK   71  A    between atoms: _162  and  _163
REMARK   72  A    between atoms: _162  and  _165
REMARK   73  A    between atoms: _165  and  _166
REMARK   74  A    between atoms: _172  and  _174
REMARK   75  A    between atoms: _174  and  _175
REMARK   76  A    between atoms: _174  and  _177
REMARK   77  A    between atoms: _177  and  _178
REMARK   78  A    between atoms: _181  and  _183
REMARK   79  A    between atoms: _183  and  _184
REMARK   80  A    between atoms: _183  and  _186
REMARK   81  A    between atoms: _189  and  _191
REMARK   82  A    between atoms: _191  and  _192
REMARK   83  A    between atoms: _191  and  _194
REMARK   84  A    between atoms: _197  and  _199
REMARK   85  A    between atoms: _199  and  _200
REMARK   86  A    between atoms: _199  and  _202
REMARK   87  A    between atoms: _202  and  _203
REMARK   88  A    between atoms: _207  and  _208
REMARK   89  A    between atoms: _213  and  _215
REMARK   90  A    between atoms: _215  and  _216
REMARK   91  A    between atoms: _215  and  _218
REMARK   92  A    between atoms: _221  and  _223
REMARK   93  A    between atoms: _223  and  _224
REMARK   94  A    between atoms: _223  and  _226
REMARK   95  A    between atoms: _226  and  _227
REMARK   96  A    between atoms: _232  and  _234
REMARK   97  A    between atoms: _234  and  _235
REMARK   98  A    between atoms: _234  and  _237
REMARK   99  A    between atoms: _237  and  _238
REMARK  100  A    between atoms: _241  and  _243
REMARK  101  A    between atoms: _243  and  _244
REMARK  102  A    between atoms: _243  and  _246
REMARK  103  A    between atoms: _246  and  _247
REMARK  104  A    between atoms: _250  and  _252
REMARK  105  A    between atoms: _252  and  _253
REMARK  106  A    between atoms: _255  and  _257
REMARK  107  A    between atoms: _257  and  _258
REMARK  108  A    between atoms: _257  and  _260
REMARK  109  A    between atoms: _260  and  _261
REMARK  110  A    between atoms: _261  and  _262
REMARK  111  A    between atoms: _262  and  _263
REMARK  112  A    between atoms: _272  and  _274
REMARK  113  A    between atoms: _274  and  _275
REMARK  114  A    between atoms: _274  and  _277
REMARK  115  A    between atoms: _277  and  _278
REMARK  116  A    between atoms: _283  and  _285
REMARK  117  A    between atoms: _285  and  _286
REMARK  118  A    between atoms: _285  and  _288
REMARK  119  A    between atoms: _288  and  _289
REMARK  120  A    between atoms: _289  and  _290
REMARK  121  A    between atoms: _290  and  _291
REMARK  122  A    between atoms: _300  and  _302
REMARK  123  A    between atoms: _302  and  _303
REMARK  124  A    between atoms: _302  and  _305
REMARK  125  A    between atoms: _305  and  _306
REMARK  126  A    between atoms: _309  and  _311
REMARK  127  A    between atoms: _311  and  _312
REMARK  128  A    between atoms: _311  and  _314
REMARK  129  A    between atoms: _314  and  _315
REMARK  130  A    between atoms: _318  and  _320
REMARK  131  A    between atoms: _320  and  _321
REMARK  132  A    between atoms: _320  and  _323
REMARK  133  A    between atoms: _323  and  _324
REMARK  134  A    between atoms: _327  and  _329
REMARK  135  A    between atoms: _329  and  _330
REMARK  136  A    between atoms: _329  and  _332
REMARK  137  A    between atoms: _332  and  _333
REMARK  138  A    between atoms: _336  and  _338
REMARK  139  A    between atoms: _338  and  _339
REMARK  140  A    between atoms: _341  and  _343
REMARK  141  A    between atoms: _343  and  _344
REMARK  142  A    between atoms: _347  and  _349
REMARK  143  A    between atoms: _349  and  _350
REMARK  144  A    between atoms: _349  and  _352
REMARK  145  A    between atoms: _352  and  _353
REMARK  146  A    between atoms: _356  and  _358
REMARK  147  A    between atoms: _358  and  _359
REMARK  148  A    between atoms: _358  and  _361
REMARK  149  A    between atoms: _361  and  _362
REMARK  150  A    between atoms: _365  and  _367
REMARK  151  A    between atoms: _367  and  _368
REMARK  152  A    between atoms: _367  and  _370
REMARK  153  A    between atoms: _370  and  _371
REMARK  154  A    between atoms: _374  and  _376
REMARK  155  A    between atoms: _376  and  _377
REMARK  156  A    between atoms: _376  and  _379
REMARK  157  A    between atoms: _382  and  _384
REMARK  158  A    between atoms: _384  and  _385
REMARK  159  A    between atoms: _384  and  _387
REMARK  160  A    between atoms: _387  and  _388
REMARK  161  A    between atoms: _388  and  _389
REMARK  162  A    between atoms: _389  and  _390
REMARK  163  A    between atoms: _390  and  _391
REMARK  164  A    between atoms: _395  and  _397
REMARK  165  A    between atoms: _397  and  _398
REMARK  166  A    between atoms: _397  and  _400
REMARK  167  A    between atoms: _400  and  _401
REMARK  168  A    between atoms: _401  and  _402
REMARK  169  A    between atoms: _404  and  _406
REMARK  170  A    between atoms: _406  and  _407
REMARK  171  A    between atoms: _406  and  _409
REMARK  172  A    between atoms: _409  and  _410
REMARK  173  A    between atoms: _413  and  _415
REMARK  174  A    between atoms: _415  and  _416
REMARK  175  A    between atoms: _418  and  _420
REMARK  176  A    between atoms: _420  and  _421
REMARK  177  A    between atoms: _423  and  _425
REMARK  178  A    between atoms: _425  and  _426
REMARK  179  A    between atoms: _425  and  _428
REMARK  180  A    between atoms: _428  and  _429
REMARK  181  A    between atoms: _432  and  _434
REMARK  182  A    between atoms: _434  and  _435
REMARK  183  A    between atoms: _437  and  _439
REMARK  184  A    between atoms: _439  and  _440
REMARK  185  A    between atoms: _442  and  _444
REMARK  186  A    between atoms: _444  and  _445
REMARK  187  A    between atoms: _444  and  _447
REMARK  188  A    between atoms: _447  and  _448
REMARK  189  A    between atoms: _454  and  _456
REMARK  190  A    between atoms: _456  and  _457
REMARK  191  A    between atoms: _456  and  _459
REMARK  192  A    between atoms: _459  and  _460
REMARK  193  A    between atoms: _463  and  _465
REMARK  194  A    between atoms: _465  and  _466
REMARK  195  A    between atoms: _465  and  _468
REMARK  196  A    between atoms: _471  and  _473
REMARK  197  A    between atoms: _473  and  _474
REMARK  198  A    between atoms: _473  and  _476
REMARK  199  A    between atoms: _479  and  _481
REMARK  200  A    between atoms: _481  and  _482
REMARK  201  A    between atoms: _481  and  _484
REMARK  202  A    between atoms: _484  and  _485
REMARK  203  A    between atoms: _489  and  _490
REMARK  204  A    between atoms: _495  and  _497
REMARK  205  A    between atoms: _497  and  _498
REMARK  206  A    between atoms: _497  and  _500
REMARK  207  A    between atoms: _503  and  _505
REMARK  208  A    between atoms: _505  and  _506
REMARK  209  A    between atoms: _505  and  _508
REMARK  210  A    between atoms: _508  and  _509
REMARK  211  A    between atoms: _514  and  _516
REMARK  212  A    between atoms: _516  and  _517
REMARK  213  A    between atoms: _516  and  _519
REMARK  214  A    between atoms: _519  and  _520
REMARK  215  A    between atoms: _523  and  _525
REMARK  216  A    between atoms: _525  and  _526
REMARK  217  A    between atoms: _525  and  _528
REMARK  218  A    between atoms: _528  and  _529
REMARK  219  A    between atoms: _532  and  _534
REMARK  220  A    between atoms: _534  and  _535
REMARK  221  A    between atoms: _537  and  _539
REMARK  222  A    between atoms: _539  and  _540
REMARK  223  A    between atoms: _539  and  _542
REMARK  224  A    between atoms: _542  and  _543
REMARK  225  A    between atoms: _543  and  _544
REMARK  226  A    between atoms: _544  and  _545
REMARK  227  A    between atoms: _554  and  _556
REMARK  228  A    between atoms: _556  and  _557
REMARK  229  A    between atoms: _556  and  _559
REMARK  230  A    between atoms: _559  and  _560
REMARK                            x       y       z     vdW  Elec       q    Type
REMARK                         _______ _______ _______ _____ _____    ______ ____
ROOT
ATOM      1  O   HOH     1       3.853  18.487  20.358  0.00  0.00    +0.000 OA
ENDROOT
TORSDOF 0
REMARK  Name = ../refined-set-2016/3pwm/3pwm_pocket.pdb
REMARK  230 active torsions:
REMARK  status: ('A' for Active; 'I' for Inactive)
REMARK    1  A    between atoms: _1  and  _3
REMARK    2  A    between atoms: _3  and  _4
REMARK    3  A    between atoms: _3  and  _6
REMARK    4  A    between atoms: _6  and  _7
REMARK    5  A    between atoms: _7  and  _8
REMARK    6  A    between atoms: _8  and  _9
REMARK    7  A    between atoms: _18  and  _20
REMARK    8  A    between atoms: _20  and  _21
REMARK    9  A    between atoms: _20  and  _23
REMARK   10  A    between atoms: _23  and  _24
REMARK   11  A    between atoms: _27  and  _29
REMARK   12  A    between atoms: _29  and  _30
REMARK   13  A    between atoms: _29  and  _32
REMARK   14  A    between atoms: _32  and  _33
REMARK   15  A    between atoms: _36  and  _38
REMARK   16  A    between atoms: _38  and  _39
REMARK   17  A    between atoms: _38  and  _41
REMARK   18  A    between atoms: _41  and  _42
REMARK   19  A    between atoms: _45  and  _47
REMARK   20  A    between atoms: _47  and  _48
REMARK   21  A    between atoms: _47  and  _50
REMARK   22  A    between atoms: _50  and  _51
REMARK   23  A    between atoms: _54  and  _56
REMARK   24  A    between atoms: _56  and  _57
REMARK   25  A    between atoms: _59  and  _61
REMARK   26  A    between atoms: _61  and  _62
REMARK   27  A    between atoms: _65  and  _67
REMARK   28  A    between atoms: _67  and  _68
REMARK   29  A    between atoms: _67  and  _70
REMARK   30  A    between atoms: _70  and  _71
REMARK   31  A    between atoms: _74  and  _76
REMARK   32  A    between atoms: _76  and  _77
REMARK   33  A    between atoms: _76  and  _79
REMARK   34  A    between atoms: _79  and  _80
REMARK   35  A    between atoms: _83  and  _85
REMARK   36  A    between atoms: _85  and  _86
REMARK   37  A    between atoms: _85  and  _88
REMARK   38  A    between atoms: _88  and  _89
REMARK   39  A    between atoms: _92  and  _94
REMARK   40  A    between atoms: _94  and  _95
REMARK   41  A    between atoms: _94  and  _97
REMARK   42  A    between atoms: _100  and  _102
REMARK   43  A    between atoms: _102  and  _103
REMARK   44  A    between atoms: _102  and  _105
REMARK   45  A    between atoms: _105  and  _106
REMARK   46  A    between atoms: _106  and  _107
REMARK   47  A    between atoms: _107  and  _108
REMARK   48  A    between atoms: _108  and  _109
REMARK   49  A    between atoms: _113  and  _115
REMARK   50  A    between atoms: _115  and  _116
REMARK   51  A    between atoms: _115  and  _118
REMARK   52  A    between atoms: _118  and  _119
REMARK   53  A    between atoms: _119  and  _120
REMARK   54  A    between atoms: _122  and  _124
REMARK   55  A    between atoms: _124  and  _125
REMARK   56  A    between atoms: _124  and  _127
REMARK   57  A    between atoms: _127  and  _128
REMARK   58  A    between atoms: _131  and  _133
REMARK   59  A    between atoms: _133  and  _134
REMARK   60  A    between atoms: _136  and  _138
REMARK   61  A    between atoms: _138  and  _139
REMARK   62  A    between atoms: _141  and  _143
REMARK   63  A    between atoms: _143  and  _144
REMARK   64  A    between atoms: _143  and  _146
REMARK   65  A    between atoms: _146  and  _147
REMARK   66  A    between atoms: _150  and  _152
REMARK   67  A    between atoms: _152  and  _153
REMARK   68  A    between atoms: _155  and  _157
REMARK   69  A    between atoms: _157  and  _158
REMARK   70  A    between atoms: _160  and  _162
REMARK   71  A    between atoms: _162  and  _163
REMARK   72  A    between atoms: _162  and  _165
REMARK   73  A    between atoms: _165  and  _166
REMARK   74  A    between atoms: _172  and  _174
REMARK   75  A    between atoms: _174  and  _175
REMARK   76  A    between atoms: _174  and  _177
REMARK   77  A    between atoms: _177  and  _178
REMARK   78  A    between atoms: _181  and  _183
REMARK   79  A    between atoms: _183  and  _184
REMARK   80  A    between atoms: _183  and  _186
REMARK   81  A    between atoms: _189  and  _191
REMARK   82  A    between atoms: _191  and  _192
REMARK   83  A    between atoms: _191  and  _194
REMARK   84  A    between atoms: _197  and  _199
REMARK   85  A    between atoms: _199  and  _200
REMARK   86  A    between atoms: _199  and  _202
REMARK   87  A    between atoms: _202  and  _203
REMARK   88  A    between atoms: _207  and  _208
REMARK   89  A    between atoms: _213  and  _215
REMARK   90  A    between atoms: _215  and  _216
REMARK   91  A    between atoms: _215  and  _218
REMARK   92  A    between atoms: _221  and  _223
REMARK   93  A    between atoms: _223  and  _224
REMARK   94  A    between atoms: _223  and  _226
REMARK   95  A    between atoms: _226  and  _227
REMARK   96  A    between atoms: _232  and  _234
REMARK   97  A    between atoms: _234  and  _235
REMARK   98  A    between atoms: _234  and  _237
REMARK   99  A    between atoms: _237  and  _238
REMARK  100  A    between atoms: _241  and  _243
REMARK  101  A    between atoms: _243  and  _244
REMARK  102  A    between atoms: _243  and  _246
REMARK  103  A    between atoms: _246  and  _247
REMARK  104  A    between atoms: _250  and  _252
REMARK  105  A    between atoms: _252  and  _253
REMARK  106  A    between atoms: _255  and  _257
REMARK  107  A    between atoms: _257  and  _258
REMARK  108  A    between atoms: _257  and  _260
REMARK  109  A    between atoms: _260  and  _261
REMARK  110  A    between atoms: _261  and  _262
REMARK  111  A    between atoms: _262  and  _263
REMARK  112  A    between atoms: _272  and  _274
REMARK  113  A    between atoms: _274  and  _275
REMARK  114  A    between atoms: _274  and  _277
REMARK  115  A    between atoms: _277  and  _278
REMARK  116  A    between atoms: _283  and  _285
REMARK  117  A    between atoms: _285  and  _286
REMARK  118  A    between atoms: _285  and  _288
REMARK  119  A    between atoms: _288  and  _289
REMARK  120  A    between atoms: _289  and  _290
REMARK  121  A    between atoms: _290  and  _291
REMARK  122  A    between atoms: _300  and  _302
REMARK  123  A    between atoms: _302  and  _303
REMARK  124  A    between atoms: _302  and  _305
REMARK  125  A    between atoms: _305  and  _306
REMARK  126  A    between atoms: _309  and  _311
REMARK  127  A    between atoms: _311  and  _312
REMARK  128  A    between atoms: _311  and  _314
REMARK  129  A    between atoms: _314  and  _315
REMARK  130  A    between atoms: _318  and  _320
REMARK  131  A    between atoms: _320  and  _321
REMARK  132  A    between atoms: _320  and  _323
REMARK  133  A    between atoms: _323  and  _324
REMARK  134  A    between atoms: _327  and  _329
REMARK  135  A    between atoms: _329  and  _330
REMARK  136  A    between atoms: _329  and  _332
REMARK  137  A    between atoms: _332  and  _333
REMARK  138  A    between atoms: _336  and  _338
REMARK  139  A    between atoms: _338  and  _339
REMARK  140  A    between atoms: _341  and  _343
REMARK  141  A    between atoms: _343  and  _344
REMARK  142  A    between atoms: _347  and  _349
REMARK  143  A    between atoms: _349  and  _350
REMARK  144  A    between atoms: _349  and  _352
REMARK  145  A    between atoms: _352  and  _353
REMARK  146  A    between atoms: _356  and  _358
REMARK  147  A    between atoms: _358  and  _359
REMARK  148  A    between atoms: _358  and  _361
REMARK  149  A    between atoms: _361  and  _362
REMARK  150  A    between atoms: _365  and  _367
REMARK  151  A    between atoms: _367  and  _368
REMARK  152  A    between atoms: _367  and  _370
REMARK  153  A    between atoms: _370  and  _371
REMARK  154  A    between atoms: _374  and  _376
REMARK  155  A    between atoms: _376  and  _377
REMARK  156  A    between atoms: _376  and  _379
REMARK  157  A    between atoms: _382  and  _384
REMARK  158  A    between atoms: _384  and  _385
REMARK  159  A    between atoms: _384  and  _387
REMARK  160  A    between atoms: _387  and  _388
REMARK  161  A    between atoms: _388  and  _389
REMARK  162  A    between atoms: _389  and  _390
REMARK  163  A    between atoms: _390  and  _391
REMARK  164  A    between atoms: _395  and  _397
REMARK  165  A    between atoms: _397  and  _398
REMARK  166  A    between atoms: _397  and  _400
REMARK  167  A    between atoms: _400  and  _401
REMARK  168  A    between atoms: _401  and  _402
REMARK  169  A    between atoms: _404  and  _406
REMARK  170  A    between atoms: _406  and  _407
REMARK  171  A    between atoms: _406  and  _409
REMARK  172  A    between atoms: _409  and  _410
REMARK  173  A    between atoms: _413  and  _415
REMARK  174  A    between atoms: _415  and  _416
REMARK  175  A    between atoms: _418  and  _420
REMARK  176  A    between atoms: _420  and  _421
REMARK  177  A    between atoms: _423  and  _425
REMARK  178  A    between atoms: _425  and  _426
REMARK  179  A    between atoms: _425  and  _428
REMARK  180  A    between atoms: _428  and  _429
REMARK  181  A    between atoms: _432  and  _434
REMARK  182  A    between atoms: _434  and  _435
REMARK  183  A    between atoms: _437  and  _439
REMARK  184  A    between atoms: _439  and  _440
REMARK  185  A    between atoms: _442  and  _444
REMARK  186  A    between atoms: _444  and  _445
REMARK  187  A    between atoms: _444  and  _447
REMARK  188  A    between atoms: _447  and  _448
REMARK  189  A    between atoms: _454  and  _456
REMARK  190  A    between atoms: _456  and  _457
REMARK  191  A    between atoms: _456  and  _459
REMARK  192  A    between atoms: _459  and  _460
REMARK  193  A    between atoms: _463  and  _465
REMARK  194  A    between atoms: _465  and  _466
REMARK  195  A    between atoms: _465  and  _468
REMARK  196  A    between atoms: _471  and  _473
REMARK  197  A    between atoms: _473  and  _474
REMARK  198  A    between atoms: _473  and  _476
REMARK  199  A    between atoms: _479  and  _481
REMARK  200  A    between atoms: _481  and  _482
REMARK  201  A    between atoms: _481  and  _484
REMARK  202  A    between atoms: _484  and  _485
REMARK  203  A    between atoms: _489  and  _490
REMARK  204  A    between atoms: _495  and  _497
REMARK  205  A    between atoms: _497  and  _498
REMARK  206  A    between atoms: _497  and  _500
REMARK  207  A    between atoms: _503  and  _505
REMARK  208  A    between atoms: _505  and  _506
REMARK  209  A    between atoms: _505  and  _508
REMARK  210  A    between atoms: _508  and  _509
REMARK  211  A    between atoms: _514  and  _516
REMARK  212  A    between atoms: _516  and  _517
REMARK  213  A    between atoms: _516  and  _519
REMARK  214  A    between atoms: _519  and  _520
REMARK  215  A    between atoms: _523  and  _525
REMARK  216  A    between atoms: _525  and  _526
REMARK  217  A    between atoms: _525  and  _528
REMARK  218  A    between atoms: _528  and  _529
REMARK  219  A    between atoms: _532  and  _534
REMARK  220  A    between atoms: _534  and  _535
REMARK  221  A    between atoms: _537  and  _539
REMARK  222  A    between atoms: _539  and  _540
REMARK  223  A    between atoms: _539  and  _542
REMARK  224  A    between atoms: _542  and  _543
REMARK  225  A    between atoms: _543  and  _544
REMARK  226  A    between atoms: _544  and  _545
REMARK  227  A    between atoms: _554  and  _556
REMARK  228  A    between atoms: _556  and  _557
REMARK  229  A    between atoms: _556  and  _559
REMARK  230  A    between atoms: _559  and  _560
REMARK                            x       y       z     vdW  Elec       q    Type
REMARK                         _______ _______ _______ _____ _____    ______ ____
ROOT
ATOM      1  O   HOH     1      19.664  27.000  26.731  0.00  0.00    +0.000 OA
ENDROOT
TORSDOF 0
REMARK  Name = ../refined-set-2016/3pwm/3pwm_pocket.pdb
REMARK  230 active torsions:
REMARK  status: ('A' for Active; 'I' for Inactive)
REMARK    1  A    between atoms: _1  and  _3
REMARK    2  A    between atoms: _3  and  _4
REMARK    3  A    between atoms: _3  and  _6
REMARK    4  A    between atoms: _6  and  _7
REMARK    5  A    between atoms: _7  and  _8
REMARK    6  A    between atoms: _8  and  _9
REMARK    7  A    between atoms: _18  and  _20
REMARK    8  A    between atoms: _20  and  _21
REMARK    9  A    between atoms: _20  and  _23
REMARK   10  A    between atoms: _23  and  _24
REMARK   11  A    between atoms: _27  and  _29
REMARK   12  A    between atoms: _29  and  _30
REMARK   13  A    between atoms: _29  and  _32
REMARK   14  A    between atoms: _32  and  _33
REMARK   15  A    between atoms: _36  and  _38
REMARK   16  A    between atoms: _38  and  _39
REMARK   17  A    between atoms: _38  and  _41
REMARK   18  A    between atoms: _41  and  _42
REMARK   19  A    between atoms: _45  and  _47
REMARK   20  A    between atoms: _47  and  _48
REMARK   21  A    between atoms: _47  and  _50
REMARK   22  A    between atoms: _50  and  _51
REMARK   23  A    between atoms: _54  and  _56
REMARK   24  A    between atoms: _56  and  _57
REMARK   25  A    between atoms: _59  and  _61
REMARK   26  A    between atoms: _61  and  _62
REMARK   27  A    between atoms: _65  and  _67
REMARK   28  A    between atoms: _67  and  _68
REMARK   29  A    between atoms: _67  and  _70
REMARK   30  A    between atoms: _70  and  _71
REMARK   31  A    between atoms: _74  and  _76
REMARK   32  A    between atoms: _76  and  _77
REMARK   33  A    between atoms: _76  and  _79
REMARK   34  A    between atoms: _79  and  _80
REMARK   35  A    between atoms: _83  and  _85
REMARK   36  A    between atoms: _85  and  _86
REMARK   37  A    between atoms: _85  and  _88
REMARK   38  A    between atoms: _88  and  _89
REMARK   39  A    between atoms: _92  and  _94
REMARK   40  A    between atoms: _94  and  _95
REMARK   41  A    between atoms: _94  and  _97
REMARK   42  A    between atoms: _100  and  _102
REMARK   43  A    between atoms: _102  and  _103
REMARK   44  A    between atoms: _102  and  _105
REMARK   45  A    between atoms: _105  and  _106
REMARK   46  A    between atoms: _106  and  _107
REMARK   47  A    between atoms: _107  and  _108
REMARK   48  A    between atoms: _108  and  _109
REMARK   49  A    between atoms: _113  and  _115
REMARK   50  A    between atoms: _115  and  _116
REMARK   51  A    between atoms: _115  and  _118
REMARK   52  A    between atoms: _118  and  _119
REMARK   53  A    between atoms: _119  and  _120
REMARK   54  A    between atoms: _122  and  _124
REMARK   55  A    between atoms: _124  and  _125
REMARK   56  A    between atoms: _124  and  _127
REMARK   57  A    between atoms: _127  and  _128
REMARK   58  A    between atoms: _131  and  _133
REMARK   59  A    between atoms: _133  and  _134
REMARK   60  A    between atoms: _136  and  _138
REMARK   61  A    between atoms: _138  and  _139
REMARK   62  A    between atoms: _141  and  _143
REMARK   63  A    between atoms: _143  and  _144
REMARK   64  A    between atoms: _143  and  _146
REMARK   65  A    between atoms: _146  and  _147
REMARK   66  A    between atoms: _150  and  _152
REMARK   67  A    between atoms: _152  and  _153
REMARK   68  A    between atoms: _155  and  _157
REMARK   69  A    between atoms: _157  and  _158
REMARK   70  A    between atoms: _160  and  _162
REMARK   71  A    between atoms: _162  and  _163
REMARK   72  A    between atoms: _162  and  _165
REMARK   73  A    between atoms: _165  and  _166
REMARK   74  A    between atoms: _172  and  _174
REMARK   75  A    between atoms: _174  and  _175
REMARK   76  A    between atoms: _174  and  _177
REMARK   77  A    between atoms: _177  and  _178
REMARK   78  A    between atoms: _181  and  _183
REMARK   79  A    between atoms: _183  and  _184
REMARK   80  A    between atoms: _183  and  _186
REMARK   81  A    between atoms: _189  and  _191
REMARK   82  A    between atoms: _191  and  _192
REMARK   83  A    between atoms: _191  and  _194
REMARK   84  A    between atoms: _197  and  _199
REMARK   85  A    between atoms: _199  and  _200
REMARK   86  A    between atoms: _199  and  _202
REMARK   87  A    between atoms: _202  and  _203
REMARK   88  A    between atoms: _207  and  _208
REMARK   89  A    between atoms: _213  and  _215
REMARK   90  A    between atoms: _215  and  _216
REMARK   91  A    between atoms: _215  and  _218
REMARK   92  A    between atoms: _221  and  _223
REMARK   93  A    between atoms: _223  and  _224
REMARK   94  A    between atoms: _223  and  _226
REMARK   95  A    between atoms: _226  and  _227
REMARK   96  A    between atoms: _232  and  _234
REMARK   97  A    between atoms: _234  and  _235
REMARK   98  A    between atoms: _234  and  _237
REMARK   99  A    between atoms: _237  and  _238
REMARK  100  A    between atoms: _241  and  _243
REMARK  101  A    between atoms: _243  and  _244
REMARK  102  A    between atoms: _243  and  _246
REMARK  103  A    between atoms: _246  and  _247
REMARK  104  A    between atoms: _250  and  _252
REMARK  105  A    between atoms: _252  and  _253
REMARK  106  A    between atoms: _255  and  _257
REMARK  107  A    between atoms: _257  and  _258
REMARK  108  A    between atoms: _257  and  _260
REMARK  109  A    between atoms: _260  and  _261
REMARK  110  A    between atoms: _261  and  _262
REMARK  111  A    between atoms: _262  and  _263
REMARK  112  A    between atoms: _272  and  _274
REMARK  113  A    between atoms: _274  and  _275
REMARK  114  A    between atoms: _274  and  _277
REMARK  115  A    between atoms: _277  and  _278
REMARK  116  A    between atoms: _283  and  _285
REMARK  117  A    between atoms: _285  and  _286
REMARK  118  A    between atoms: _285  and  _288
REMARK  119  A    between atoms: _288  and  _289
REMARK  120  A    between atoms: _289  and  _290
REMARK  121  A    between atoms: _290  and  _291
REMARK  122  A    between atoms: _300  and  _302
REMARK  123  A    between atoms: _302  and  _303
REMARK  124  A    between atoms: _302  and  _305
REMARK  125  A    between atoms: _305  and  _306
REMARK  126  A    between atoms: _309  and  _311
REMARK  127  A    between atoms: _311  and  _312
REMARK  128  A    between atoms: _311  and  _314
REMARK  129  A    between atoms: _314  and  _315
REMARK  130  A    between atoms: _318  and  _320
REMARK  131  A    between atoms: _320  and  _321
REMARK  132  A    between atoms: _320  and  _323
REMARK  133  A    between atoms: _323  and  _324
REMARK  134  A    between atoms: _327  and  _329
REMARK  135  A    between atoms: _329  and  _330
REMARK  136  A    between atoms: _329  and  _332
REMARK  137  A    between atoms: _332  and  _333
REMARK  138  A    between atoms: _336  and  _338
REMARK  139  A    between atoms: _338  and  _339
REMARK  140  A    between atoms: _341  and  _343
REMARK  141  A    between atoms: _343  and  _344
REMARK  142  A    between atoms: _347  and  _349
REMARK  143  A    between atoms: _349  and  _350
REMARK  144  A    between atoms: _349  and  _352
REMARK  145  A    between atoms: _352  and  _353
REMARK  146  A    between atoms: _356  and  _358
REMARK  147  A    between atoms: _358  and  _359
REMARK  148  A    between atoms: _358  and  _361
REMARK  149  A    between atoms: _361  and  _362
REMARK  150  A    between atoms: _365  and  _367
REMARK  151  A    between atoms: _367  and  _368
REMARK  152  A    between atoms: _367  and  _370
REMARK  153  A    between atoms: _370  and  _371
REMARK  154  A    between atoms: _374  and  _376
REMARK  155  A    between atoms: _376  and  _377
REMARK  156  A    between atoms: _376  and  _379
REMARK  157  A    between atoms: _382  and  _384
REMARK  158  A    between atoms: _384  and  _385
REMARK  159  A    between atoms: _384  and  _387
REMARK  160  A    between atoms: _387  and  _388
REMARK  161  A    between atoms: _388  and  _389
REMARK  162  A    between atoms: _389  and  _390
REMARK  163  A    between atoms: _390  and  _391
REMARK  164  A    between atoms: _395  and  _397
REMARK  165  A    between atoms: _397  and  _398
REMARK  166  A    between atoms: _397  and  _400
REMARK  167  A    between atoms: _400  and  _401
REMARK  168  A    between atoms: _401  and  _402
REMARK  169  A    between atoms: _404  and  _406
REMARK  170  A    between atoms: _406  and  _407
REMARK  171  A    between atoms: _406  and  _409
REMARK  172  A    between atoms: _409  and  _410
REMARK  173  A    between atoms: _413  and  _415
REMARK  174  A    between atoms: _415  and  _416
REMARK  175  A    between atoms: _418  and  _420
REMARK  176  A    between atoms: _420  and  _421
REMARK  177  A    between atoms: _423  and  _425
REMARK  178  A    between atoms: _425  and  _426
REMARK  179  A    between atoms: _425  and  _428
REMARK  180  A    between atoms: _428  and  _429
REMARK  181  A    between atoms: _432  and  _434
REMARK  182  A    between atoms: _434  and  _435
REMARK  183  A    between atoms: _437  and  _439
REMARK  184  A    between atoms: _439  and  _440
REMARK  185  A    between atoms: _442  and  _444
REMARK  186  A    between atoms: _444  and  _445
REMARK  187  A    between atoms: _444  and  _447
REMARK  188  A    between atoms: _447  and  _448
REMARK  189  A    between atoms: _454  and  _456
REMARK  190  A    between atoms: _456  and  _457
REMARK  191  A    between atoms: _456  and  _459
REMARK  192  A    between atoms: _459  and  _460
REMARK  193  A    between atoms: _463  and  _465
REMARK  194  A    between atoms: _465  and  _466
REMARK  195  A    between atoms: _465  and  _468
REMARK  196  A    between atoms: _471  and  _473
REMARK  197  A    between atoms: _473  and  _474
REMARK  198  A    between atoms: _473  and  _476
REMARK  199  A    between atoms: _479  and  _481
REMARK  200  A    between atoms: _481  and  _482
REMARK  201  A    between atoms: _481  and  _484
REMARK  202  A    between atoms: _484  and  _485
REMARK  203  A    between atoms: _489  and  _490
REMARK  204  A    between atoms: _495  and  _497
REMARK  205  A    between atoms: _497  and  _498
REMARK  206  A    between atoms: _497  and  _500
REMARK  207  A    between atoms: _503  and  _505
REMARK  208  A    between atoms: _505  and  _506
REMARK  209  A    between atoms: _505  and  _508
REMARK  210  A    between atoms: _508  and  _509
REMARK  211  A    between atoms: _514  and  _516
REMARK  212  A    between atoms: _516  and  _517
REMARK  213  A    between atoms: _516  and  _519
REMARK  214  A    between atoms: _519  and  _520
REMARK  215  A    between atoms: _523  and  _525
REMARK  216  A    between atoms: _525  and  _526
REMARK  217  A    between atoms: _525  and  _528
REMARK  218  A    between atoms: _528  and  _529
REMARK  219  A    between atoms: _532  and  _534
REMARK  220  A    between atoms: _534  and  _535
REMARK  221  A    between atoms: _537  and  _539
REMARK  222  A    between atoms: _539  and  _540
REMARK  223  A    between atoms: _539  and  _542
REMARK  224  A    between atoms: _542  and  _543
REMARK  225  A    between atoms: _543  and  _544
REMARK  226  A    between atoms: _544  and  _545
REMARK  227  A    between atoms: _554  and  _556
REMARK  228  A    between atoms: _556  and  _557
REMARK  229  A    between atoms: _556  and  _559
REMARK  230  A    between atoms: _559  and  _560
REMARK                            x       y       z     vdW  Elec       q    Type
REMARK                         _______ _______ _______ _____ _____    ______ ____
ROOT
ATOM      1  O   HOH     1      21.671  19.078  18.241  0.00  0.00    +0.000 OA
ENDROOT
TORSDOF 0
REMARK  Name = ../refined-set-2016/3pwm/3pwm_pocket.pdb
REMARK  230 active torsions:
REMARK  status: ('A' for Active; 'I' for Inactive)
REMARK    1  A    between atoms: _1  and  _3
REMARK    2  A    between atoms: _3  and  _4
REMARK    3  A    between atoms: _3  and  _6
REMARK    4  A    between atoms: _6  and  _7
REMARK    5  A    between atoms: _7  and  _8
REMARK    6  A    between atoms: _8  and  _9
REMARK    7  A    between atoms: _18  and  _20
REMARK    8  A    between atoms: _20  and  _21
REMARK    9  A    between atoms: _20  and  _23
REMARK   10  A    between atoms: _23  and  _24
REMARK   11  A    between atoms: _27  and  _29
REMARK   12  A    between atoms: _29  and  _30
REMARK   13  A    between atoms: _29  and  _32
REMARK   14  A    between atoms: _32  and  _33
REMARK   15  A    between atoms: _36  and  _38
REMARK   16  A    between atoms: _38  and  _39
REMARK   17  A    between atoms: _38  and  _41
REMARK   18  A    between atoms: _41  and  _42
REMARK   19  A    between atoms: _45  and  _47
REMARK   20  A    between atoms: _47  and  _48
REMARK   21  A    between atoms: _47  and  _50
REMARK   22  A    between atoms: _50  and  _51
REMARK   23  A    between atoms: _54  and  _56
REMARK   24  A    between atoms: _56  and  _57
REMARK   25  A    between atoms: _59  and  _61
REMARK   26  A    between atoms: _61  and  _62
REMARK   27  A    between atoms: _65  and  _67
REMARK   28  A    between atoms: _67  and  _68
REMARK   29  A    between atoms: _67  and  _70
REMARK   30  A    between atoms: _70  and  _71
REMARK   31  A    between atoms: _74  and  _76
REMARK   32  A    between atoms: _76  and  _77
REMARK   33  A    between atoms: _76  and  _79
REMARK   34  A    between atoms: _79  and  _80
REMARK   35  A    between atoms: _83  and  _85
REMARK   36  A    between atoms: _85  and  _86
REMARK   37  A    between atoms: _85  and  _88
REMARK   38  A    between atoms: _88  and  _89
REMARK   39  A    between atoms: _92  and  _94
REMARK   40  A    between atoms: _94  and  _95
REMARK   41  A    between atoms: _94  and  _97
REMARK   42  A    between atoms: _100  and  _102
REMARK   43  A    between atoms: _102  and  _103
REMARK   44  A    between atoms: _102  and  _105
REMARK   45  A    between atoms: _105  and  _106
REMARK   46  A    between atoms: _106  and  _107
REMARK   47  A    between atoms: _107  and  _108
REMARK   48  A    between atoms: _108  and  _109
REMARK   49  A    between atoms: _113  and  _115
REMARK   50  A    between atoms: _115  and  _116
REMARK   51  A    between atoms: _115  and  _118
REMARK   52  A    between atoms: _118  and  _119
REMARK   53  A    between atoms: _119  and  _120
REMARK   54  A    between atoms: _122  and  _124
REMARK   55  A    between atoms: _124  and  _125
REMARK   56  A    between atoms: _124  and  _127
REMARK   57  A    between atoms: _127  and  _128
REMARK   58  A    between atoms: _131  and  _133
REMARK   59  A    between atoms: _133  and  _134
REMARK   60  A    between atoms: _136  and  _138
REMARK   61  A    between atoms: _138  and  _139
REMARK   62  A    between atoms: _141  and  _143
REMARK   63  A    between atoms: _143  and  _144
REMARK   64  A    between atoms: _143  and  _146
REMARK   65  A    between atoms: _146  and  _147
REMARK   66  A    between atoms: _150  and  _152
REMARK   67  A    between atoms: _152  and  _153
REMARK   68  A    between atoms: _155  and  _157
REMARK   69  A    between atoms: _157  and  _158
REMARK   70  A    between atoms: _160  and  _162
REMARK   71  A    between atoms: _162  and  _163
REMARK   72  A    between atoms: _162  and  _165
REMARK   73  A    between atoms: _165  and  _166
REMARK   74  A    between atoms: _172  and  _174
REMARK   75  A    between atoms: _174  and  _175
REMARK   76  A    between atoms: _174  and  _177
REMARK   77  A    between atoms: _177  and  _178
REMARK   78  A    between atoms: _181  and  _183
REMARK   79  A    between atoms: _183  and  _184
REMARK   80  A    between atoms: _183  and  _186
REMARK   81  A    between atoms: _189  and  _191
REMARK   82  A    between atoms: _191  and  _192
REMARK   83  A    between atoms: _191  and  _194
REMARK   84  A    between atoms: _197  and  _199
REMARK   85  A    between atoms: _199  and  _200
REMARK   86  A    between atoms: _199  and  _202
REMARK   87  A    between atoms: _202  and  _203
REMARK   88  A    between atoms: _207  and  _208
REMARK   89  A    between atoms: _213  and  _215
REMARK   90  A    between atoms: _215  and  _216
REMARK   91  A    between atoms: _215  and  _218
REMARK   92  A    between atoms: _221  and  _223
REMARK   93  A    between atoms: _223  and  _224
REMARK   94  A    between atoms: _223  and  _226
REMARK   95  A    between atoms: _226  and  _227
REMARK   96  A    between atoms: _232  and  _234
REMARK   97  A    between atoms: _234  and  _235
REMARK   98  A    between atoms: _234  and  _237
REMARK   99  A    between atoms: _237  and  _238
REMARK  100  A    between atoms: _241  and  _243
REMARK  101  A    between atoms: _243  and  _244
REMARK  102  A    between atoms: _243  and  _246
REMARK  103  A    between atoms: _246  and  _247
REMARK  104  A    between atoms: _250  and  _252
REMARK  105  A    between atoms: _252  and  _253
REMARK  106  A    between atoms: _255  and  _257
REMARK  107  A    between atoms: _257  and  _258
REMARK  108  A    between atoms: _257  and  _260
REMARK  109  A    between atoms: _260  and  _261
REMARK  110  A    between atoms: _261  and  _262
REMARK  111  A    between atoms: _262  and  _263
REMARK  112  A    between atoms: _272  and  _274
REMARK  113  A    between atoms: _274  and  _275
REMARK  114  A    between atoms: _274  and  _277
REMARK  115  A    between atoms: _277  and  _278
REMARK  116  A    between atoms: _283  and  _285
REMARK  117  A    between atoms: _285  and  _286
REMARK  118  A    between atoms: _285  and  _288
REMARK  119  A    between atoms: _288  and  _289
REMARK  120  A    between atoms: _289  and  _290
REMARK  121  A    between atoms: _290  and  _291
REMARK  122  A    between atoms: _300  and  _302
REMARK  123  A    between atoms: _302  and  _303
REMARK  124  A    between atoms: _302  and  _305
REMARK  125  A    between atoms: _305  and  _306
REMARK  126  A    between atoms: _309  and  _311
REMARK  127  A    between atoms: _311  and  _312
REMARK  128  A    between atoms: _311  and  _314
REMARK  129  A    between atoms: _314  and  _315
REMARK  130  A    between atoms: _318  and  _320
REMARK  131  A    between atoms: _320  and  _321
REMARK  132  A    between atoms: _320  and  _323
REMARK  133  A    between atoms: _323  and  _324
REMARK  134  A    between atoms: _327  and  _329
REMARK  135  A    between atoms: _329  and  _330
REMARK  136  A    between atoms: _329  and  _332
REMARK  137  A    between atoms: _332  and  _333
REMARK  138  A    between atoms: _336  and  _338
REMARK  139  A    between atoms: _338  and  _339
REMARK  140  A    between atoms: _341  and  _343
REMARK  141  A    between atoms: _343  and  _344
REMARK  142  A    between atoms: _347  and  _349
REMARK  143  A    between atoms: _349  and  _350
REMARK  144  A    between atoms: _349  and  _352
REMARK  145  A    between atoms: _352  and  _353
REMARK  146  A    between atoms: _356  and  _358
REMARK  147  A    between atoms: _358  and  _359
REMARK  148  A    between atoms: _358  and  _361
REMARK  149  A    between atoms: _361  and  _362
REMARK  150  A    between atoms: _365  and  _367
REMARK  151  A    between atoms: _367  and  _368
REMARK  152  A    between atoms: _367  and  _370
REMARK  153  A    between atoms: _370  and  _371
REMARK  154  A    between atoms: _374  and  _376
REMARK  155  A    between atoms: _376  and  _377
REMARK  156  A    between atoms: _376  and  _379
REMARK  157  A    between atoms: _382  and  _384
REMARK  158  A    between atoms: _384  and  _385
REMARK  159  A    between atoms: _384  and  _387
REMARK  160  A    between atoms: _387  and  _388
REMARK  161  A    between atoms: _388  and  _389
REMARK  162  A    between atoms: _389  and  _390
REMARK  163  A    between atoms: _390  and  _391
REMARK  164  A    between atoms: _395  and  _397
REMARK  165  A    between atoms: _397  and  _398
REMARK  166  A    between atoms: _397  and  _400
REMARK  167  A    between atoms: _400  and  _401
REMARK  168  A    between atoms: _401  and  _402
REMARK  169  A    between atoms: _404  and  _406
REMARK  170  A    between atoms: _406  and  _407
REMARK  171  A    between atoms: _406  and  _409
REMARK  172  A    between atoms: _409  and  _410
REMARK  173  A    between atoms: _413  and  _415
REMARK  174  A    between atoms: _415  and  _416
REMARK  175  A    between atoms: _418  and  _420
REMARK  176  A    between atoms: _420  and  _421
REMARK  177  A    between atoms: _423  and  _425
REMARK  178  A    between atoms: _425  and  _426
REMARK  179  A    between atoms: _425  and  _428
REMARK  180  A    between atoms: _428  and  _429
REMARK  181  A    between atoms: _432  and  _434
REMARK  182  A    between atoms: _434  and  _435
REMARK  183  A    between atoms: _437  and  _439
REMARK  184  A    between atoms: _439  and  _440
REMARK  185  A    between atoms: _442  and  _444
REMARK  186  A    between atoms: _444  and  _445
REMARK  187  A    between atoms: _444  and  _447
REMARK  188  A    between atoms: _447  and  _448
REMARK  189  A    between atoms: _454  and  _456
REMARK  190  A    between atoms: _456  and  _457
REMARK  191  A    between atoms: _456  and  _459
REMARK  192  A    between atoms: _459  and  _460
REMARK  193  A    between atoms: _463  and  _465
REMARK  194  A    between atoms: _465  and  _466
REMARK  195  A    between atoms: _465  and  _468
REMARK  196  A    between atoms: _471  and  _473
REMARK  197  A    between atoms: _473  and  _474
REMARK  198  A    between atoms: _473  and  _476
REMARK  199  A    between atoms: _479  and  _481
REMARK  200  A    between atoms: _481  and  _482
REMARK  201  A    between atoms: _481  and  _484
REMARK  202  A    between atoms: _484  and  _485
REMARK  203  A    between atoms: _489  and  _490
REMARK  204  A    between atoms: _495  and  _497
REMARK  205  A    between atoms: _497  and  _498
REMARK  206  A    between atoms: _497  and  _500
REMARK  207  A    between atoms: _503  and  _505
REMARK  208  A    between atoms: _505  and  _506
REMARK  209  A    between atoms: _505  and  _508
REMARK  210  A    between atoms: _508  and  _509
REMARK  211  A    between atoms: _514  and  _516
REMARK  212  A    between atoms: _516  and  _517
REMARK  213  A    between atoms: _516  and  _519
REMARK  214  A    between atoms: _519  and  _520
REMARK  215  A    between atoms: _523  and  _525
REMARK  216  A    between atoms: _525  and  _526
REMARK  217  A    between atoms: _525  and  _528
REMARK  218  A    between atoms: _528  and  _529
REMARK  219  A    between atoms: _532  and  _534
REMARK  220  A    between atoms: _534  and  _535
REMARK  221  A    between atoms: _537  and  _539
REMARK  222  A    between atoms: _539  and  _540
REMARK  223  A    between atoms: _539  and  _542
REMARK  224  A    between atoms: _542  and  _543
REMARK  225  A    between atoms: _543  and  _544
REMARK  226  A    between atoms: _544  and  _545
REMARK  227  A    between atoms: _554  and  _556
REMARK  228  A    between atoms: _556  and  _557
REMARK  229  A    between atoms: _556  and  _559
REMARK  230  A    between atoms: _559  and  _560
REMARK                            x       y       z     vdW  Elec       q    Type
REMARK                         _______ _______ _______ _____ _____    ______ ____
ROOT
ATOM      1  O   HOH     1      20.299  20.897  16.624  0.00  0.00    +0.000 OA
ENDROOT
TORSDOF 0
REMARK  Name = ../refined-set-2016/3pwm/3pwm_pocket.pdb
REMARK  230 active torsions:
REMARK  status: ('A' for Active; 'I' for Inactive)
REMARK    1  A    between atoms: _1  and  _3
REMARK    2  A    between atoms: _3  and  _4
REMARK    3  A    between atoms: _3  and  _6
REMARK    4  A    between atoms: _6  and  _7
REMARK    5  A    between atoms: _7  and  _8
REMARK    6  A    between atoms: _8  and  _9
REMARK    7  A    between atoms: _18  and  _20
REMARK    8  A    between atoms: _20  and  _21
REMARK    9  A    between atoms: _20  and  _23
REMARK   10  A    between atoms: _23  and  _24
REMARK   11  A    between atoms: _27  and  _29
REMARK   12  A    between atoms: _29  and  _30
REMARK   13  A    between atoms: _29  and  _32
REMARK   14  A    between atoms: _32  and  _33
REMARK   15  A    between atoms: _36  and  _38
REMARK   16  A    between atoms: _38  and  _39
REMARK   17  A    between atoms: _38  and  _41
REMARK   18  A    between atoms: _41  and  _42
REMARK   19  A    between atoms: _45  and  _47
REMARK   20  A    between atoms: _47  and  _48
REMARK   21  A    between atoms: _47  and  _50
REMARK   22  A    between atoms: _50  and  _51
REMARK   23  A    between atoms: _54  and  _56
REMARK   24  A    between atoms: _56  and  _57
REMARK   25  A    between atoms: _59  and  _61
REMARK   26  A    between atoms: _61  and  _62
REMARK   27  A    between atoms: _65  and  _67
REMARK   28  A    between atoms: _67  and  _68
REMARK   29  A    between atoms: _67  and  _70
REMARK   30  A    between atoms: _70  and  _71
REMARK   31  A    between atoms: _74  and  _76
REMARK   32  A    between atoms: _76  and  _77
REMARK   33  A    between atoms: _76  and  _79
REMARK   34  A    between atoms: _79  and  _80
REMARK   35  A    between atoms: _83  and  _85
REMARK   36  A    between atoms: _85  and  _86
REMARK   37  A    between atoms: _85  and  _88
REMARK   38  A    between atoms: _88  and  _89
REMARK   39  A    between atoms: _92  and  _94
REMARK   40  A    between atoms: _94  and  _95
REMARK   41  A    between atoms: _94  and  _97
REMARK   42  A    between atoms: _100  and  _102
REMARK   43  A    between atoms: _102  and  _103
REMARK   44  A    between atoms: _102  and  _105
REMARK   45  A    between atoms: _105  and  _106
REMARK   46  A    between atoms: _106  and  _107
REMARK   47  A    between atoms: _107  and  _108
REMARK   48  A    between atoms: _108  and  _109
REMARK   49  A    between atoms: _113  and  _115
REMARK   50  A    between atoms: _115  and  _116
REMARK   51  A    between atoms: _115  and  _118
REMARK   52  A    between atoms: _118  and  _119
REMARK   53  A    between atoms: _119  and  _120
REMARK   54  A    between atoms: _122  and  _124
REMARK   55  A    between atoms: _124  and  _125
REMARK   56  A    between atoms: _124  and  _127
REMARK   57  A    between atoms: _127  and  _128
REMARK   58  A    between atoms: _131  and  _133
REMARK   59  A    between atoms: _133  and  _134
REMARK   60  A    between atoms: _136  and  _138
REMARK   61  A    between atoms: _138  and  _139
REMARK   62  A    between atoms: _141  and  _143
REMARK   63  A    between atoms: _143  and  _144
REMARK   64  A    between atoms: _143  and  _146
REMARK   65  A    between atoms: _146  and  _147
REMARK   66  A    between atoms: _150  and  _152
REMARK   67  A    between atoms: _152  and  _153
REMARK   68  A    between atoms: _155  and  _157
REMARK   69  A    between atoms: _157  and  _158
REMARK   70  A    between atoms: _160  and  _162
REMARK   71  A    between atoms: _162  and  _163
REMARK   72  A    between atoms: _162  and  _165
REMARK   73  A    between atoms: _165  and  _166
REMARK   74  A    between atoms: _172  and  _174
REMARK   75  A    between atoms: _174  and  _175
REMARK   76  A    between atoms: _174  and  _177
REMARK   77  A    between atoms: _177  and  _178
REMARK   78  A    between atoms: _181  and  _183
REMARK   79  A    between atoms: _183  and  _184
REMARK   80  A    between atoms: _183  and  _186
REMARK   81  A    between atoms: _189  and  _191
REMARK   82  A    between atoms: _191  and  _192
REMARK   83  A    between atoms: _191  and  _194
REMARK   84  A    between atoms: _197  and  _199
REMARK   85  A    between atoms: _199  and  _200
REMARK   86  A    between atoms: _199  and  _202
REMARK   87  A    between atoms: _202  and  _203
REMARK   88  A    between atoms: _207  and  _208
REMARK   89  A    between atoms: _213  and  _215
REMARK   90  A    between atoms: _215  and  _216
REMARK   91  A    between atoms: _215  and  _218
REMARK   92  A    between atoms: _221  and  _223
REMARK   93  A    between atoms: _223  and  _224
REMARK   94  A    between atoms: _223  and  _226
REMARK   95  A    between atoms: _226  and  _227
REMARK   96  A    between atoms: _232  and  _234
REMARK   97  A    between atoms: _234  and  _235
REMARK   98  A    between atoms: _234  and  _237
REMARK   99  A    between atoms: _237  and  _238
REMARK  100  A    between atoms: _241  and  _243
REMARK  101  A    between atoms: _243  and  _244
REMARK  102  A    between atoms: _243  and  _246
REMARK  103  A    between atoms: _246  and  _247
REMARK  104  A    between atoms: _250  and  _252
REMARK  105  A    between atoms: _252  and  _253
REMARK  106  A    between atoms: _255  and  _257
REMARK  107  A    between atoms: _257  and  _258
REMARK  108  A    between atoms: _257  and  _260
REMARK  109  A    between atoms: _260  and  _261
REMARK  110  A    between atoms: _261  and  _262
REMARK  111  A    between atoms: _262  and  _263
REMARK  112  A    between atoms: _272  and  _274
REMARK  113  A    between atoms: _274  and  _275
REMARK  114  A    between atoms: _274  and  _277
REMARK  115  A    between atoms: _277  and  _278
REMARK  116  A    between atoms: _283  and  _285
REMARK  117  A    between atoms: _285  and  _286
REMARK  118  A    between atoms: _285  and  _288
REMARK  119  A    between atoms: _288  and  _289
REMARK  120  A    between atoms: _289  and  _290
REMARK  121  A    between atoms: _290  and  _291
REMARK  122  A    between atoms: _300  and  _302
REMARK  123  A    between atoms: _302  and  _303
REMARK  124  A    between atoms: _302  and  _305
REMARK  125  A    between atoms: _305  and  _306
REMARK  126  A    between atoms: _309  and  _311
REMARK  127  A    between atoms: _311  and  _312
REMARK  128  A    between atoms: _311  and  _314
REMARK  129  A    between atoms: _314  and  _315
REMARK  130  A    between atoms: _318  and  _320
REMARK  131  A    between atoms: _320  and  _321
REMARK  132  A    between atoms: _320  and  _323
REMARK  133  A    between atoms: _323  and  _324
REMARK  134  A    between atoms: _327  and  _329
REMARK  135  A    between atoms: _329  and  _330
REMARK  136  A    between atoms: _329  and  _332
REMARK  137  A    between atoms: _332  and  _333
REMARK  138  A    between atoms: _336  and  _338
REMARK  139  A    between atoms: _338  and  _339
REMARK  140  A    between atoms: _341  and  _343
REMARK  141  A    between atoms: _343  and  _344
REMARK  142  A    between atoms: _347  and  _349
REMARK  143  A    between atoms: _349  and  _350
REMARK  144  A    between atoms: _349  and  _352
REMARK  145  A    between atoms: _352  and  _353
REMARK  146  A    between atoms: _356  and  _358
REMARK  147  A    between atoms: _358  and  _359
REMARK  148  A    between atoms: _358  and  _361
REMARK  149  A    between atoms: _361  and  _362
REMARK  150  A    between atoms: _365  and  _367
REMARK  151  A    between atoms: _367  and  _368
REMARK  152  A    between atoms: _367  and  _370
REMARK  153  A    between atoms: _370  and  _371
REMARK  154  A    between atoms: _374  and  _376
REMARK  155  A    between atoms: _376  and  _377
REMARK  156  A    between atoms: _376  and  _379
REMARK  157  A    between atoms: _382  and  _384
REMARK  158  A    between atoms: _384  and  _385
REMARK  159  A    between atoms: _384  and  _387
REMARK  160  A    between atoms: _387  and  _388
REMARK  161  A    between atoms: _388  and  _389
REMARK  162  A    between atoms: _389  and  _390
REMARK  163  A    between atoms: _390  and  _391
REMARK  164  A    between atoms: _395  and  _397
REMARK  165  A    between atoms: _397  and  _398
REMARK  166  A    between atoms: _397  and  _400
REMARK  167  A    between atoms: _400  and  _401
REMARK  168  A    between atoms: _401  and  _402
REMARK  169  A    between atoms: _404  and  _406
REMARK  170  A    between atoms: _406  and  _407
REMARK  171  A    between atoms: _406  and  _409
REMARK  172  A    between atoms: _409  and  _410
REMARK  173  A    between atoms: _413  and  _415
REMARK  174  A    between atoms: _415  and  _416
REMARK  175  A    between atoms: _418  and  _420
REMARK  176  A    between atoms: _420  and  _421
REMARK  177  A    between atoms: _423  and  _425
REMARK  178  A    between atoms: _425  and  _426
REMARK  179  A    between atoms: _425  and  _428
REMARK  180  A    between atoms: _428  and  _429
REMARK  181  A    between atoms: _432  and  _434
REMARK  182  A    between atoms: _434  and  _435
REMARK  183  A    between atoms: _437  and  _439
REMARK  184  A    between atoms: _439  and  _440
REMARK  185  A    between atoms: _442  and  _444
REMARK  186  A    between atoms: _444  and  _445
REMARK  187  A    between atoms: _444  and  _447
REMARK  188  A    between atoms: _447  and  _448
REMARK  189  A    between atoms: _454  and  _456
REMARK  190  A    between atoms: _456  and  _457
REMARK  191  A    between atoms: _456  and  _459
REMARK  192  A    between atoms: _459  and  _460
REMARK  193  A    between atoms: _463  and  _465
REMARK  194  A    between atoms: _465  and  _466
REMARK  195  A    between atoms: _465  and  _468
REMARK  196  A    between atoms: _471  and  _473
REMARK  197  A    between atoms: _473  and  _474
REMARK  198  A    between atoms: _473  and  _476
REMARK  199  A    between atoms: _479  and  _481
REMARK  200  A    between atoms: _481  and  _482
REMARK  201  A    between atoms: _481  and  _484
REMARK  202  A    between atoms: _484  and  _485
REMARK  203  A    between atoms: _489  and  _490
REMARK  204  A    between atoms: _495  and  _497
REMARK  205  A    between atoms: _497  and  _498
REMARK  206  A    between atoms: _497  and  _500
REMARK  207  A    between atoms: _503  and  _505
REMARK  208  A    between atoms: _505  and  _506
REMARK  209  A    between atoms: _505  and  _508
REMARK  210  A    between atoms: _508  and  _509
REMARK  211  A    between atoms: _514  and  _516
REMARK  212  A    between atoms: _516  and  _517
REMARK  213  A    between atoms: _516  and  _519
REMARK  214  A    between atoms: _519  and  _520
REMARK  215  A    between atoms: _523  and  _525
REMARK  216  A    between atoms: _525  and  _526
REMARK  217  A    between atoms: _525  and  _528
REMARK  218  A    between atoms: _528  and  _529
REMARK  219  A    between atoms: _532  and  _534
REMARK  220  A    between atoms: _534  and  _535
REMARK  221  A    between atoms: _537  and  _539
REMARK  222  A    between atoms: _539  and  _540
REMARK  223  A    between atoms: _539  and  _542
REMARK  224  A    between atoms: _542  and  _543
REMARK  225  A    between atoms: _543  and  _544
REMARK  226  A    between atoms: _544  and  _545
REMARK  227  A    between atoms: _554  and  _556
REMARK  228  A    between atoms: _556  and  _557
REMARK  229  A    between atoms: _556  and  _559
REMARK  230  A    between atoms: _559  and  _560
REMARK                            x       y       z     vdW  Elec       q    Type
REMARK                         _______ _______ _______ _____ _____    ______ ____
ROOT
ATOM      1  O   HOH     1      18.156  27.955  16.699  0.00  0.00    +0.000 OA
ENDROOT
TORSDOF 0
REMARK  Name = ../refined-set-2016/3pwm/3pwm_pocket.pdb
REMARK  230 active torsions:
REMARK  status: ('A' for Active; 'I' for Inactive)
REMARK    1  A    between atoms: _1  and  _3
REMARK    2  A    between atoms: _3  and  _4
REMARK    3  A    between atoms: _3  and  _6
REMARK    4  A    between atoms: _6  and  _7
REMARK    5  A    between atoms: _7  and  _8
REMARK    6  A    between atoms: _8  and  _9
REMARK    7  A    between atoms: _18  and  _20
REMARK    8  A    between atoms: _20  and  _21
REMARK    9  A    between atoms: _20  and  _23
REMARK   10  A    between atoms: _23  and  _24
REMARK   11  A    between atoms: _27  and  _29
REMARK   12  A    between atoms: _29  and  _30
REMARK   13  A    between atoms: _29  and  _32
REMARK   14  A    between atoms: _32  and  _33
REMARK   15  A    between atoms: _36  and  _38
REMARK   16  A    between atoms: _38  and  _39
REMARK   17  A    between atoms: _38  and  _41
REMARK   18  A    between atoms: _41  and  _42
REMARK   19  A    between atoms: _45  and  _47
REMARK   20  A    between atoms: _47  and  _48
REMARK   21  A    between atoms: _47  and  _50
REMARK   22  A    between atoms: _50  and  _51
REMARK   23  A    between atoms: _54  and  _56
REMARK   24  A    between atoms: _56  and  _57
REMARK   25  A    between atoms: _59  and  _61
REMARK   26  A    between atoms: _61  and  _62
REMARK   27  A    between atoms: _65  and  _67
REMARK   28  A    between atoms: _67  and  _68
REMARK   29  A    between atoms: _67  and  _70
REMARK   30  A    between atoms: _70  and  _71
REMARK   31  A    between atoms: _74  and  _76
REMARK   32  A    between atoms: _76  and  _77
REMARK   33  A    between atoms: _76  and  _79
REMARK   34  A    between atoms: _79  and  _80
REMARK   35  A    between atoms: _83  and  _85
REMARK   36  A    between atoms: _85  and  _86
REMARK   37  A    between atoms: _85  and  _88
REMARK   38  A    between atoms: _88  and  _89
REMARK   39  A    between atoms: _92  and  _94
REMARK   40  A    between atoms: _94  and  _95
REMARK   41  A    between atoms: _94  and  _97
REMARK   42  A    between atoms: _100  and  _102
REMARK   43  A    between atoms: _102  and  _103
REMARK   44  A    between atoms: _102  and  _105
REMARK   45  A    between atoms: _105  and  _106
REMARK   46  A    between atoms: _106  and  _107
REMARK   47  A    between atoms: _107  and  _108
REMARK   48  A    between atoms: _108  and  _109
REMARK   49  A    between atoms: _113  and  _115
REMARK   50  A    between atoms: _115  and  _116
REMARK   51  A    between atoms: _115  and  _118
REMARK   52  A    between atoms: _118  and  _119
REMARK   53  A    between atoms: _119  and  _120
REMARK   54  A    between atoms: _122  and  _124
REMARK   55  A    between atoms: _124  and  _125
REMARK   56  A    between atoms: _124  and  _127
REMARK   57  A    between atoms: _127  and  _128
REMARK   58  A    between atoms: _131  and  _133
REMARK   59  A    between atoms: _133  and  _134
REMARK   60  A    between atoms: _136  and  _138
REMARK   61  A    between atoms: _138  and  _139
REMARK   62  A    between atoms: _141  and  _143
REMARK   63  A    between atoms: _143  and  _144
REMARK   64  A    between atoms: _143  and  _146
REMARK   65  A    between atoms: _146  and  _147
REMARK   66  A    between atoms: _150  and  _152
REMARK   67  A    between atoms: _152  and  _153
REMARK   68  A    between atoms: _155  and  _157
REMARK   69  A    between atoms: _157  and  _158
REMARK   70  A    between atoms: _160  and  _162
REMARK   71  A    between atoms: _162  and  _163
REMARK   72  A    between atoms: _162  and  _165
REMARK   73  A    between atoms: _165  and  _166
REMARK   74  A    between atoms: _172  and  _174
REMARK   75  A    between atoms: _174  and  _175
REMARK   76  A    between atoms: _174  and  _177
REMARK   77  A    between atoms: _177  and  _178
REMARK   78  A    between atoms: _181  and  _183
REMARK   79  A    between atoms: _183  and  _184
REMARK   80  A    between atoms: _183  and  _186
REMARK   81  A    between atoms: _189  and  _191
REMARK   82  A    between atoms: _191  and  _192
REMARK   83  A    between atoms: _191  and  _194
REMARK   84  A    between atoms: _197  and  _199
REMARK   85  A    between atoms: _199  and  _200
REMARK   86  A    between atoms: _199  and  _202
REMARK   87  A    between atoms: _202  and  _203
REMARK   88  A    between atoms: _207  and  _208
REMARK   89  A    between atoms: _213  and  _215
REMARK   90  A    between atoms: _215  and  _216
REMARK   91  A    between atoms: _215  and  _218
REMARK   92  A    between atoms: _221  and  _223
REMARK   93  A    between atoms: _223  and  _224
REMARK   94  A    between atoms: _223  and  _226
REMARK   95  A    between atoms: _226  and  _227
REMARK   96  A    between atoms: _232  and  _234
REMARK   97  A    between atoms: _234  and  _235
REMARK   98  A    between atoms: _234  and  _237
REMARK   99  A    between atoms: _237  and  _238
REMARK  100  A    between atoms: _241  and  _243
REMARK  101  A    between atoms: _243  and  _244
REMARK  102  A    between atoms: _243  and  _246
REMARK  103  A    between atoms: _246  and  _247
REMARK  104  A    between atoms: _250  and  _252
REMARK  105  A    between atoms: _252  and  _253
REMARK  106  A    between atoms: _255  and  _257
REMARK  107  A    between atoms: _257  and  _258
REMARK  108  A    between atoms: _257  and  _260
REMARK  109  A    between atoms: _260  and  _261
REMARK  110  A    between atoms: _261  and  _262
REMARK  111  A    between atoms: _262  and  _263
REMARK  112  A    between atoms: _272  and  _274
REMARK  113  A    between atoms: _274  and  _275
REMARK  114  A    between atoms: _274  and  _277
REMARK  115  A    between atoms: _277  and  _278
REMARK  116  A    between atoms: _283  and  _285
REMARK  117  A    between atoms: _285  and  _286
REMARK  118  A    between atoms: _285  and  _288
REMARK  119  A    between atoms: _288  and  _289
REMARK  120  A    between atoms: _289  and  _290
REMARK  121  A    between atoms: _290  and  _291
REMARK  122  A    between atoms: _300  and  _302
REMARK  123  A    between atoms: _302  and  _303
REMARK  124  A    between atoms: _302  and  _305
REMARK  125  A    between atoms: _305  and  _306
REMARK  126  A    between atoms: _309  and  _311
REMARK  127  A    between atoms: _311  and  _312
REMARK  128  A    between atoms: _311  and  _314
REMARK  129  A    between atoms: _314  and  _315
REMARK  130  A    between atoms: _318  and  _320
REMARK  131  A    between atoms: _320  and  _321
REMARK  132  A    between atoms: _320  and  _323
REMARK  133  A    between atoms: _323  and  _324
REMARK  134  A    between atoms: _327  and  _329
REMARK  135  A    between atoms: _329  and  _330
REMARK  136  A    between atoms: _329  and  _332
REMARK  137  A    between atoms: _332  and  _333
REMARK  138  A    between atoms: _336  and  _338
REMARK  139  A    between atoms: _338  and  _339
REMARK  140  A    between atoms: _341  and  _343
REMARK  141  A    between atoms: _343  and  _344
REMARK  142  A    between atoms: _347  and  _349
REMARK  143  A    between atoms: _349  and  _350
REMARK  144  A    between atoms: _349  and  _352
REMARK  145  A    between atoms: _352  and  _353
REMARK  146  A    between atoms: _356  and  _358
REMARK  147  A    between atoms: _358  and  _359
REMARK  148  A    between atoms: _358  and  _361
REMARK  149  A    between atoms: _361  and  _362
REMARK  150  A    between atoms: _365  and  _367
REMARK  151  A    between atoms: _367  and  _368
REMARK  152  A    between atoms: _367  and  _370
REMARK  153  A    between atoms: _370  and  _371
REMARK  154  A    between atoms: _374  and  _376
REMARK  155  A    between atoms: _376  and  _377
REMARK  156  A    between atoms: _376  and  _379
REMARK  157  A    between atoms: _382  and  _384
REMARK  158  A    between atoms: _384  and  _385
REMARK  159  A    between atoms: _384  and  _387
REMARK  160  A    between atoms: _387  and  _388
REMARK  161  A    between atoms: _388  and  _389
REMARK  162  A    between atoms: _389  and  _390
REMARK  163  A    between atoms: _390  and  _391
REMARK  164  A    between atoms: _395  and  _397
REMARK  165  A    between atoms: _397  and  _398
REMARK  166  A    between atoms: _397  and  _400
REMARK  167  A    between atoms: _400  and  _401
REMARK  168  A    between atoms: _401  and  _402
REMARK  169  A    between atoms: _404  and  _406
REMARK  170  A    between atoms: _406  and  _407
REMARK  171  A    between atoms: _406  and  _409
REMARK  172  A    between atoms: _409  and  _410
REMARK  173  A    between atoms: _413  and  _415
REMARK  174  A    between atoms: _415  and  _416
REMARK  175  A    between atoms: _418  and  _420
REMARK  176  A    between atoms: _420  and  _421
REMARK  177  A    between atoms: _423  and  _425
REMARK  178  A    between atoms: _425  and  _426
REMARK  179  A    between atoms: _425  and  _428
REMARK  180  A    between atoms: _428  and  _429
REMARK  181  A    between atoms: _432  and  _434
REMARK  182  A    between atoms: _434  and  _435
REMARK  183  A    between atoms: _437  and  _439
REMARK  184  A    between atoms: _439  and  _440
REMARK  185  A    between atoms: _442  and  _444
REMARK  186  A    between atoms: _444  and  _445
REMARK  187  A    between atoms: _444  and  _447
REMARK  188  A    between atoms: _447  and  _448
REMARK  189  A    between atoms: _454  and  _456
REMARK  190  A    between atoms: _456  and  _457
REMARK  191  A    between atoms: _456  and  _459
REMARK  192  A    between atoms: _459  and  _460
REMARK  193  A    between atoms: _463  and  _465
REMARK  194  A    between atoms: _465  and  _466
REMARK  195  A    between atoms: _465  and  _468
REMARK  196  A    between atoms: _471  and  _473
REMARK  197  A    between atoms: _473  and  _474
REMARK  198  A    between atoms: _473  and  _476
REMARK  199  A    between atoms: _479  and  _481
REMARK  200  A    between atoms: _481  and  _482
REMARK  201  A    between atoms: _481  and  _484
REMARK  202  A    between atoms: _484  and  _485
REMARK  203  A    between atoms: _489  and  _490
REMARK  204  A    between atoms: _495  and  _497
REMARK  205  A    between atoms: _497  and  _498
REMARK  206  A    between atoms: _497  and  _500
REMARK  207  A    between atoms: _503  and  _505
REMARK  208  A    between atoms: _505  and  _506
REMARK  209  A    between atoms: _505  and  _508
REMARK  210  A    between atoms: _508  and  _509
REMARK  211  A    between atoms: _514  and  _516
REMARK  212  A    between atoms: _516  and  _517
REMARK  213  A    between atoms: _516  and  _519
REMARK  214  A    between atoms: _519  and  _520
REMARK  215  A    between atoms: _523  and  _525
REMARK  216  A    between atoms: _525  and  _526
REMARK  217  A    between atoms: _525  and  _528
REMARK  218  A    between atoms: _528  and  _529
REMARK  219  A    between atoms: _532  and  _534
REMARK  220  A    between atoms: _534  and  _535
REMARK  221  A    between atoms: _537  and  _539
REMARK  222  A    between atoms: _539  and  _540
REMARK  223  A    between atoms: _539  and  _542
REMARK  224  A    between atoms: _542  and  _543
REMARK  225  A    between atoms: _543  and  _544
REMARK  226  A    between atoms: _544  and  _545
REMARK  227  A    between atoms: _554  and  _556
REMARK  228  A    between atoms: _556  and  _557
REMARK  229  A    between atoms: _556  and  _559
REMARK  230  A    between atoms: _559  and  _560
REMARK                            x       y       z     vdW  Elec       q    Type
REMARK                         _______ _______ _______ _____ _____    ______ ____
ROOT
ATOM      1  O   HOH     1      13.440  27.330  11.713  0.00  0.00    +0.000 OA
ENDROOT
TORSDOF 0
REMARK  Name = ../refined-set-2016/3pwm/3pwm_pocket.pdb
REMARK  230 active torsions:
REMARK  status: ('A' for Active; 'I' for Inactive)
REMARK    1  A    between atoms: _1  and  _3
REMARK    2  A    between atoms: _3  and  _4
REMARK    3  A    between atoms: _3  and  _6
REMARK    4  A    between atoms: _6  and  _7
REMARK    5  A    between atoms: _7  and  _8
REMARK    6  A    between atoms: _8  and  _9
REMARK    7  A    between atoms: _18  and  _20
REMARK    8  A    between atoms: _20  and  _21
REMARK    9  A    between atoms: _20  and  _23
REMARK   10  A    between atoms: _23  and  _24
REMARK   11  A    between atoms: _27  and  _29
REMARK   12  A    between atoms: _29  and  _30
REMARK   13  A    between atoms: _29  and  _32
REMARK   14  A    between atoms: _32  and  _33
REMARK   15  A    between atoms: _36  and  _38
REMARK   16  A    between atoms: _38  and  _39
REMARK   17  A    between atoms: _38  and  _41
REMARK   18  A    between atoms: _41  and  _42
REMARK   19  A    between atoms: _45  and  _47
REMARK   20  A    between atoms: _47  and  _48
REMARK   21  A    between atoms: _47  and  _50
REMARK   22  A    between atoms: _50  and  _51
REMARK   23  A    between atoms: _54  and  _56
REMARK   24  A    between atoms: _56  and  _57
REMARK   25  A    between atoms: _59  and  _61
REMARK   26  A    between atoms: _61  and  _62
REMARK   27  A    between atoms: _65  and  _67
REMARK   28  A    between atoms: _67  and  _68
REMARK   29  A    between atoms: _67  and  _70
REMARK   30  A    between atoms: _70  and  _71
REMARK   31  A    between atoms: _74  and  _76
REMARK   32  A    between atoms: _76  and  _77
REMARK   33  A    between atoms: _76  and  _79
REMARK   34  A    between atoms: _79  and  _80
REMARK   35  A    between atoms: _83  and  _85
REMARK   36  A    between atoms: _85  and  _86
REMARK   37  A    between atoms: _85  and  _88
REMARK   38  A    between atoms: _88  and  _89
REMARK   39  A    between atoms: _92  and  _94
REMARK   40  A    between atoms: _94  and  _95
REMARK   41  A    between atoms: _94  and  _97
REMARK   42  A    between atoms: _100  and  _102
REMARK   43  A    between atoms: _102  and  _103
REMARK   44  A    between atoms: _102  and  _105
REMARK   45  A    between atoms: _105  and  _106
REMARK   46  A    between atoms: _106  and  _107
REMARK   47  A    between atoms: _107  and  _108
REMARK   48  A    between atoms: _108  and  _109
REMARK   49  A    between atoms: _113  and  _115
REMARK   50  A    between atoms: _115  and  _116
REMARK   51  A    between atoms: _115  and  _118
REMARK   52  A    between atoms: _118  and  _119
REMARK   53  A    between atoms: _119  and  _120
REMARK   54  A    between atoms: _122  and  _124
REMARK   55  A    between atoms: _124  and  _125
REMARK   56  A    between atoms: _124  and  _127
REMARK   57  A    between atoms: _127  and  _128
REMARK   58  A    between atoms: _131  and  _133
REMARK   59  A    between atoms: _133  and  _134
REMARK   60  A    between atoms: _136  and  _138
REMARK   61  A    between atoms: _138  and  _139
REMARK   62  A    between atoms: _141  and  _143
REMARK   63  A    between atoms: _143  and  _144
REMARK   64  A    between atoms: _143  and  _146
REMARK   65  A    between atoms: _146  and  _147
REMARK   66  A    between atoms: _150  and  _152
REMARK   67  A    between atoms: _152  and  _153
REMARK   68  A    between atoms: _155  and  _157
REMARK   69  A    between atoms: _157  and  _158
REMARK   70  A    between atoms: _160  and  _162
REMARK   71  A    between atoms: _162  and  _163
REMARK   72  A    between atoms: _162  and  _165
REMARK   73  A    between atoms: _165  and  _166
REMARK   74  A    between atoms: _172  and  _174
REMARK   75  A    between atoms: _174  and  _175
REMARK   76  A    between atoms: _174  and  _177
REMARK   77  A    between atoms: _177  and  _178
REMARK   78  A    between atoms: _181  and  _183
REMARK   79  A    between atoms: _183  and  _184
REMARK   80  A    between atoms: _183  and  _186
REMARK   81  A    between atoms: _189  and  _191
REMARK   82  A    between atoms: _191  and  _192
REMARK   83  A    between atoms: _191  and  _194
REMARK   84  A    between atoms: _197  and  _199
REMARK   85  A    between atoms: _199  and  _200
REMARK   86  A    between atoms: _199  and  _202
REMARK   87  A    between atoms: _202  and  _203
REMARK   88  A    between atoms: _207  and  _208
REMARK   89  A    between atoms: _213  and  _215
REMARK   90  A    between atoms: _215  and  _216
REMARK   91  A    between atoms: _215  and  _218
REMARK   92  A    between atoms: _221  and  _223
REMARK   93  A    between atoms: _223  and  _224
REMARK   94  A    between atoms: _223  and  _226
REMARK   95  A    between atoms: _226  and  _227
REMARK   96  A    between atoms: _232  and  _234
REMARK   97  A    between atoms: _234  and  _235
REMARK   98  A    between atoms: _234  and  _237
REMARK   99  A    between atoms: _237  and  _238
REMARK  100  A    between atoms: _241  and  _243
REMARK  101  A    between atoms: _243  and  _244
REMARK  102  A    between atoms: _243  and  _246
REMARK  103  A    between atoms: _246  and  _247
REMARK  104  A    between atoms: _250  and  _252
REMARK  105  A    between atoms: _252  and  _253
REMARK  106  A    between atoms: _255  and  _257
REMARK  107  A    between atoms: _257  and  _258
REMARK  108  A    between atoms: _257  and  _260
REMARK  109  A    between atoms: _260  and  _261
REMARK  110  A    between atoms: _261  and  _262
REMARK  111  A    between atoms: _262  and  _263
REMARK  112  A    between atoms: _272  and  _274
REMARK  113  A    between atoms: _274  and  _275
REMARK  114  A    between atoms: _274  and  _277
REMARK  115  A    between atoms: _277  and  _278
REMARK  116  A    between atoms: _283  and  _285
REMARK  117  A    between atoms: _285  and  _286
REMARK  118  A    between atoms: _285  and  _288
REMARK  119  A    between atoms: _288  and  _289
REMARK  120  A    between atoms: _289  and  _290
REMARK  121  A    between atoms: _290  and  _291
REMARK  122  A    between atoms: _300  and  _302
REMARK  123  A    between atoms: _302  and  _303
REMARK  124  A    between atoms: _302  and  _305
REMARK  125  A    between atoms: _305  and  _306
REMARK  126  A    between atoms: _309  and  _311
REMARK  127  A    between atoms: _311  and  _312
REMARK  128  A    between atoms: _311  and  _314
REMARK  129  A    between atoms: _314  and  _315
REMARK  130  A    between atoms: _318  and  _320
REMARK  131  A    between atoms: _320  and  _321
REMARK  132  A    between atoms: _320  and  _323
REMARK  133  A    between atoms: _323  and  _324
REMARK  134  A    between atoms: _327  and  _329
REMARK  135  A    between atoms: _329  and  _330
REMARK  136  A    between atoms: _329  and  _332
REMARK  137  A    between atoms: _332  and  _333
REMARK  138  A    between atoms: _336  and  _338
REMARK  139  A    between atoms: _338  and  _339
REMARK  140  A    between atoms: _341  and  _343
REMARK  141  A    between atoms: _343  and  _344
REMARK  142  A    between atoms: _347  and  _349
REMARK  143  A    between atoms: _349  and  _350
REMARK  144  A    between atoms: _349  and  _352
REMARK  145  A    between atoms: _352  and  _353
REMARK  146  A    between atoms: _356  and  _358
REMARK  147  A    between atoms: _358  and  _359
REMARK  148  A    between atoms: _358  and  _361
REMARK  149  A    between atoms: _361  and  _362
REMARK  150  A    between atoms: _365  and  _367
REMARK  151  A    between atoms: _367  and  _368
REMARK  152  A    between atoms: _367  and  _370
REMARK  153  A    between atoms: _370  and  _371
REMARK  154  A    between atoms: _374  and  _376
REMARK  155  A    between atoms: _376  and  _377
REMARK  156  A    between atoms: _376  and  _379
REMARK  157  A    between atoms: _382  and  _384
REMARK  158  A    between atoms: _384  and  _385
REMARK  159  A    between atoms: _384  and  _387
REMARK  160  A    between atoms: _387  and  _388
REMARK  161  A    between atoms: _388  and  _389
REMARK  162  A    between atoms: _389  and  _390
REMARK  163  A    between atoms: _390  and  _391
REMARK  164  A    between atoms: _395  and  _397
REMARK  165  A    between atoms: _397  and  _398
REMARK  166  A    between atoms: _397  and  _400
REMARK  167  A    between atoms: _400  and  _401
REMARK  168  A    between atoms: _401  and  _402
REMARK  169  A    between atoms: _404  and  _406
REMARK  170  A    between atoms: _406  and  _407
REMARK  171  A    between atoms: _406  and  _409
REMARK  172  A    between atoms: _409  and  _410
REMARK  173  A    between atoms: _413  and  _415
REMARK  174  A    between atoms: _415  and  _416
REMARK  175  A    between atoms: _418  and  _420
REMARK  176  A    between atoms: _420  and  _421
REMARK  177  A    between atoms: _423  and  _425
REMARK  178  A    between atoms: _425  and  _426
REMARK  179  A    between atoms: _425  and  _428
REMARK  180  A    between atoms: _428  and  _429
REMARK  181  A    between atoms: _432  and  _434
REMARK  182  A    between atoms: _434  and  _435
REMARK  183  A    between atoms: _437  and  _439
REMARK  184  A    between atoms: _439  and  _440
REMARK  185  A    between atoms: _442  and  _444
REMARK  186  A    between atoms: _444  and  _445
REMARK  187  A    between atoms: _444  and  _447
REMARK  188  A    between atoms: _447  and  _448
REMARK  189  A    between atoms: _454  and  _456
REMARK  190  A    between atoms: _456  and  _457
REMARK  191  A    between atoms: _456  and  _459
REMARK  192  A    between atoms: _459  and  _460
REMARK  193  A    between atoms: _463  and  _465
REMARK  194  A    between atoms: _465  and  _466
REMARK  195  A    between atoms: _465  and  _468
REMARK  196  A    between atoms: _471  and  _473
REMARK  197  A    between atoms: _473  and  _474
REMARK  198  A    between atoms: _473  and  _476
REMARK  199  A    between atoms: _479  and  _481
REMARK  200  A    between atoms: _481  and  _482
REMARK  201  A    between atoms: _481  and  _484
REMARK  202  A    between atoms: _484  and  _485
REMARK  203  A    between atoms: _489  and  _490
REMARK  204  A    between atoms: _495  and  _497
REMARK  205  A    between atoms: _497  and  _498
REMARK  206  A    between atoms: _497  and  _500
REMARK  207  A    between atoms: _503  and  _505
REMARK  208  A    between atoms: _505  and  _506
REMARK  209  A    between atoms: _505  and  _508
REMARK  210  A    between atoms: _508  and  _509
REMARK  211  A    between atoms: _514  and  _516
REMARK  212  A    between atoms: _516  and  _517
REMARK  213  A    between atoms: _516  and  _519
REMARK  214  A    between atoms: _519  and  _520
REMARK  215  A    between atoms: _523  and  _525
REMARK  216  A    between atoms: _525  and  _526
REMARK  217  A    between atoms: _525  and  _528
REMARK  218  A    between atoms: _528  and  _529
REMARK  219  A    between atoms: _532  and  _534
REMARK  220  A    between atoms: _534  and  _535
REMARK  221  A    between atoms: _537  and  _539
REMARK  222  A    between atoms: _539  and  _540
REMARK  223  A    between atoms: _539  and  _542
REMARK  224  A    between atoms: _542  and  _543
REMARK  225  A    between atoms: _543  and  _544
REMARK  226  A    between atoms: _544  and  _545
REMARK  227  A    between atoms: _554  and  _556
REMARK  228  A    between atoms: _556  and  _557
REMARK  229  A    between atoms: _556  and  _559
REMARK  230  A    between atoms: _559  and  _560
REMARK                            x       y       z     vdW  Elec       q    Type
REMARK                         _______ _______ _______ _____ _____    ______ ____
ROOT
ATOM      1  O   HOH     1      10.944  22.285  16.582  0.00  0.00    +0.000 OA
ENDROOT
TORSDOF 0
REMARK  Name = ../refined-set-2016/3pwm/3pwm_pocket.pdb
REMARK  230 active torsions:
REMARK  status: ('A' for Active; 'I' for Inactive)
REMARK    1  A    between atoms: _1  and  _3
REMARK    2  A    between atoms: _3  and  _4
REMARK    3  A    between atoms: _3  and  _6
REMARK    4  A    between atoms: _6  and  _7
REMARK    5  A    between atoms: _7  and  _8
REMARK    6  A    between atoms: _8  and  _9
REMARK    7  A    between atoms: _18  and  _20
REMARK    8  A    between atoms: _20  and  _21
REMARK    9  A    between atoms: _20  and  _23
REMARK   10  A    between atoms: _23  and  _24
REMARK   11  A    between atoms: _27  and  _29
REMARK   12  A    between atoms: _29  and  _30
REMARK   13  A    between atoms: _29  and  _32
REMARK   14  A    between atoms: _32  and  _33
REMARK   15  A    between atoms: _36  and  _38
REMARK   16  A    between atoms: _38  and  _39
REMARK   17  A    between atoms: _38  and  _41
REMARK   18  A    between atoms: _41  and  _42
REMARK   19  A    between atoms: _45  and  _47
REMARK   20  A    between atoms: _47  and  _48
REMARK   21  A    between atoms: _47  and  _50
REMARK   22  A    between atoms: _50  and  _51
REMARK   23  A    between atoms: _54  and  _56
REMARK   24  A    between atoms: _56  and  _57
REMARK   25  A    between atoms: _59  and  _61
REMARK   26  A    between atoms: _61  and  _62
REMARK   27  A    between atoms: _65  and  _67
REMARK   28  A    between atoms: _67  and  _68
REMARK   29  A    between atoms: _67  and  _70
REMARK   30  A    between atoms: _70  and  _71
REMARK   31  A    between atoms: _74  and  _76
REMARK   32  A    between atoms: _76  and  _77
REMARK   33  A    between atoms: _76  and  _79
REMARK   34  A    between atoms: _79  and  _80
REMARK   35  A    between atoms: _83  and  _85
REMARK   36  A    between atoms: _85  and  _86
REMARK   37  A    between atoms: _85  and  _88
REMARK   38  A    between atoms: _88  and  _89
REMARK   39  A    between atoms: _92  and  _94
REMARK   40  A    between atoms: _94  and  _95
REMARK   41  A    between atoms: _94  and  _97
REMARK   42  A    between atoms: _100  and  _102
REMARK   43  A    between atoms: _102  and  _103
REMARK   44  A    between atoms: _102  and  _105
REMARK   45  A    between atoms: _105  and  _106
REMARK   46  A    between atoms: _106  and  _107
REMARK   47  A    between atoms: _107  and  _108
REMARK   48  A    between atoms: _108  and  _109
REMARK   49  A    between atoms: _113  and  _115
REMARK   50  A    between atoms: _115  and  _116
REMARK   51  A    between atoms: _115  and  _118
REMARK   52  A    between atoms: _118  and  _119
REMARK   53  A    between atoms: _119  and  _120
REMARK   54  A    between atoms: _122  and  _124
REMARK   55  A    between atoms: _124  and  _125
REMARK   56  A    between atoms: _124  and  _127
REMARK   57  A    between atoms: _127  and  _128
REMARK   58  A    between atoms: _131  and  _133
REMARK   59  A    between atoms: _133  and  _134
REMARK   60  A    between atoms: _136  and  _138
REMARK   61  A    between atoms: _138  and  _139
REMARK   62  A    between atoms: _141  and  _143
REMARK   63  A    between atoms: _143  and  _144
REMARK   64  A    between atoms: _143  and  _146
REMARK   65  A    between atoms: _146  and  _147
REMARK   66  A    between atoms: _150  and  _152
REMARK   67  A    between atoms: _152  and  _153
REMARK   68  A    between atoms: _155  and  _157
REMARK   69  A    between atoms: _157  and  _158
REMARK   70  A    between atoms: _160  and  _162
REMARK   71  A    between atoms: _162  and  _163
REMARK   72  A    between atoms: _162  and  _165
REMARK   73  A    between atoms: _165  and  _166
REMARK   74  A    between atoms: _172  and  _174
REMARK   75  A    between atoms: _174  and  _175
REMARK   76  A    between atoms: _174  and  _177
REMARK   77  A    between atoms: _177  and  _178
REMARK   78  A    between atoms: _181  and  _183
REMARK   79  A    between atoms: _183  and  _184
REMARK   80  A    between atoms: _183  and  _186
REMARK   81  A    between atoms: _189  and  _191
REMARK   82  A    between atoms: _191  and  _192
REMARK   83  A    between atoms: _191  and  _194
REMARK   84  A    between atoms: _197  and  _199
REMARK   85  A    between atoms: _199  and  _200
REMARK   86  A    between atoms: _199  and  _202
REMARK   87  A    between atoms: _202  and  _203
REMARK   88  A    between atoms: _207  and  _208
REMARK   89  A    between atoms: _213  and  _215
REMARK   90  A    between atoms: _215  and  _216
REMARK   91  A    between atoms: _215  and  _218
REMARK   92  A    between atoms: _221  and  _223
REMARK   93  A    between atoms: _223  and  _224
REMARK   94  A    between atoms: _223  and  _226
REMARK   95  A    between atoms: _226  and  _227
REMARK   96  A    between atoms: _232  and  _234
REMARK   97  A    between atoms: _234  and  _235
REMARK   98  A    between atoms: _234  and  _237
REMARK   99  A    between atoms: _237  and  _238
REMARK  100  A    between atoms: _241  and  _243
REMARK  101  A    between atoms: _243  and  _244
REMARK  102  A    between atoms: _243  and  _246
REMARK  103  A    between atoms: _246  and  _247
REMARK  104  A    between atoms: _250  and  _252
REMARK  105  A    between atoms: _252  and  _253
REMARK  106  A    between atoms: _255  and  _257
REMARK  107  A    between atoms: _257  and  _258
REMARK  108  A    between atoms: _257  and  _260
REMARK  109  A    between atoms: _260  and  _261
REMARK  110  A    between atoms: _261  and  _262
REMARK  111  A    between atoms: _262  and  _263
REMARK  112  A    between atoms: _272  and  _274
REMARK  113  A    between atoms: _274  and  _275
REMARK  114  A    between atoms: _274  and  _277
REMARK  115  A    between atoms: _277  and  _278
REMARK  116  A    between atoms: _283  and  _285
REMARK  117  A    between atoms: _285  and  _286
REMARK  118  A    between atoms: _285  and  _288
REMARK  119  A    between atoms: _288  and  _289
REMARK  120  A    between atoms: _289  and  _290
REMARK  121  A    between atoms: _290  and  _291
REMARK  122  A    between atoms: _300  and  _302
REMARK  123  A    between atoms: _302  and  _303
REMARK  124  A    between atoms: _302  and  _305
REMARK  125  A    between atoms: _305  and  _306
REMARK  126  A    between atoms: _309  and  _311
REMARK  127  A    between atoms: _311  and  _312
REMARK  128  A    between atoms: _311  and  _314
REMARK  129  A    between atoms: _314  and  _315
REMARK  130  A    between atoms: _318  and  _320
REMARK  131  A    between atoms: _320  and  _321
REMARK  132  A    between atoms: _320  and  _323
REMARK  133  A    between atoms: _323  and  _324
REMARK  134  A    between atoms: _327  and  _329
REMARK  135  A    between atoms: _329  and  _330
REMARK  136  A    between atoms: _329  and  _332
REMARK  137  A    between atoms: _332  and  _333
REMARK  138  A    between atoms: _336  and  _338
REMARK  139  A    between atoms: _338  and  _339
REMARK  140  A    between atoms: _341  and  _343
REMARK  141  A    between atoms: _343  and  _344
REMARK  142  A    between atoms: _347  and  _349
REMARK  143  A    between atoms: _349  and  _350
REMARK  144  A    between atoms: _349  and  _352
REMARK  145  A    between atoms: _352  and  _353
REMARK  146  A    between atoms: _356  and  _358
REMARK  147  A    between atoms: _358  and  _359
REMARK  148  A    between atoms: _358  and  _361
REMARK  149  A    between atoms: _361  and  _362
REMARK  150  A    between atoms: _365  and  _367
REMARK  151  A    between atoms: _367  and  _368
REMARK  152  A    between atoms: _367  and  _370
REMARK  153  A    between atoms: _370  and  _371
REMARK  154  A    between atoms: _374  and  _376
REMARK  155  A    between atoms: _376  and  _377
REMARK  156  A    between atoms: _376  and  _379
REMARK  157  A    between atoms: _382  and  _384
REMARK  158  A    between atoms: _384  and  _385
REMARK  159  A    between atoms: _384  and  _387
REMARK  160  A    between atoms: _387  and  _388
REMARK  161  A    between atoms: _388  and  _389
REMARK  162  A    between atoms: _389  and  _390
REMARK  163  A    between atoms: _390  and  _391
REMARK  164  A    between atoms: _395  and  _397
REMARK  165  A    between atoms: _397  and  _398
REMARK  166  A    between atoms: _397  and  _400
REMARK  167  A    between atoms: _400  and  _401
REMARK  168  A    between atoms: _401  and  _402
REMARK  169  A    between atoms: _404  and  _406
REMARK  170  A    between atoms: _406  and  _407
REMARK  171  A    between atoms: _406  and  _409
REMARK  172  A    between atoms: _409  and  _410
REMARK  173  A    between atoms: _413  and  _415
REMARK  174  A    between atoms: _415  and  _416
REMARK  175  A    between atoms: _418  and  _420
REMARK  176  A    between atoms: _420  and  _421
REMARK  177  A    between atoms: _423  and  _425
REMARK  178  A    between atoms: _425  and  _426
REMARK  179  A    between atoms: _425  and  _428
REMARK  180  A    between atoms: _428  and  _429
REMARK  181  A    between atoms: _432  and  _434
REMARK  182  A    between atoms: _434  and  _435
REMARK  183  A    between atoms: _437  and  _439
REMARK  184  A    between atoms: _439  and  _440
REMARK  185  A    between atoms: _442  and  _444
REMARK  186  A    between atoms: _444  and  _445
REMARK  187  A    between atoms: _444  and  _447
REMARK  188  A    between atoms: _447  and  _448
REMARK  189  A    between atoms: _454  and  _456
REMARK  190  A    between atoms: _456  and  _457
REMARK  191  A    between atoms: _456  and  _459
REMARK  192  A    between atoms: _459  and  _460
REMARK  193  A    between atoms: _463  and  _465
REMARK  194  A    between atoms: _465  and  _466
REMARK  195  A    between atoms: _465  and  _468
REMARK  196  A    between atoms: _471  and  _473
REMARK  197  A    between atoms: _473  and  _474
REMARK  198  A    between atoms: _473  and  _476
REMARK  199  A    between atoms: _479  and  _481
REMARK  200  A    between atoms: _481  and  _482
REMARK  201  A    between atoms: _481  and  _484
REMARK  202  A    between atoms: _484  and  _485
REMARK  203  A    between atoms: _489  and  _490
REMARK  204  A    between atoms: _495  and  _497
REMARK  205  A    between atoms: _497  and  _498
REMARK  206  A    between atoms: _497  and  _500
REMARK  207  A    between atoms: _503  and  _505
REMARK  208  A    between atoms: _505  and  _506
REMARK  209  A    between atoms: _505  and  _508
REMARK  210  A    between atoms: _508  and  _509
REMARK  211  A    between atoms: _514  and  _516
REMARK  212  A    between atoms: _516  and  _517
REMARK  213  A    between atoms: _516  and  _519
REMARK  214  A    between atoms: _519  and  _520
REMARK  215  A    between atoms: _523  and  _525
REMARK  216  A    between atoms: _525  and  _526
REMARK  217  A    between atoms: _525  and  _528
REMARK  218  A    between atoms: _528  and  _529
REMARK  219  A    between atoms: _532  and  _534
REMARK  220  A    between atoms: _534  and  _535
REMARK  221  A    between atoms: _537  and  _539
REMARK  222  A    between atoms: _539  and  _540
REMARK  223  A    between atoms: _539  and  _542
REMARK  224  A    between atoms: _542  and  _543
REMARK  225  A    between atoms: _543  and  _544
REMARK  226  A    between atoms: _544  and  _545
REMARK  227  A    between atoms: _554  and  _556
REMARK  228  A    between atoms: _556  and  _557
REMARK  229  A    between atoms: _556  and  _559
REMARK  230  A    between atoms: _559  and  _560
REMARK                            x       y       z     vdW  Elec       q    Type
REMARK                         _______ _______ _______ _____ _____    ______ ____
ROOT
ATOM      1  O   HOH     1       5.782  15.019  26.155  0.00  0.00    +0.000 OA
ENDROOT
TORSDOF 0
REMARK  Name = ../refined-set-2016/3pwm/3pwm_pocket.pdb
REMARK  230 active torsions:
REMARK  status: ('A' for Active; 'I' for Inactive)
REMARK    1  A    between atoms: _1  and  _3
REMARK    2  A    between atoms: _3  and  _4
REMARK    3  A    between atoms: _3  and  _6
REMARK    4  A    between atoms: _6  and  _7
REMARK    5  A    between atoms: _7  and  _8
REMARK    6  A    between atoms: _8  and  _9
REMARK    7  A    between atoms: _18  and  _20
REMARK    8  A    between atoms: _20  and  _21
REMARK    9  A    between atoms: _20  and  _23
REMARK   10  A    between atoms: _23  and  _24
REMARK   11  A    between atoms: _27  and  _29
REMARK   12  A    between atoms: _29  and  _30
REMARK   13  A    between atoms: _29  and  _32
REMARK   14  A    between atoms: _32  and  _33
REMARK   15  A    between atoms: _36  and  _38
REMARK   16  A    between atoms: _38  and  _39
REMARK   17  A    between atoms: _38  and  _41
REMARK   18  A    between atoms: _41  and  _42
REMARK   19  A    between atoms: _45  and  _47
REMARK   20  A    between atoms: _47  and  _48
REMARK   21  A    between atoms: _47  and  _50
REMARK   22  A    between atoms: _50  and  _51
REMARK   23  A    between atoms: _54  and  _56
REMARK   24  A    between atoms: _56  and  _57
REMARK   25  A    between atoms: _59  and  _61
REMARK   26  A    between atoms: _61  and  _62
REMARK   27  A    between atoms: _65  and  _67
REMARK   28  A    between atoms: _67  and  _68
REMARK   29  A    between atoms: _67  and  _70
REMARK   30  A    between atoms: _70  and  _71
REMARK   31  A    between atoms: _74  and  _76
REMARK   32  A    between atoms: _76  and  _77
REMARK   33  A    between atoms: _76  and  _79
REMARK   34  A    between atoms: _79  and  _80
REMARK   35  A    between atoms: _83  and  _85
REMARK   36  A    between atoms: _85  and  _86
REMARK   37  A    between atoms: _85  and  _88
REMARK   38  A    between atoms: _88  and  _89
REMARK   39  A    between atoms: _92  and  _94
REMARK   40  A    between atoms: _94  and  _95
REMARK   41  A    between atoms: _94  and  _97
REMARK   42  A    between atoms: _100  and  _102
REMARK   43  A    between atoms: _102  and  _103
REMARK   44  A    between atoms: _102  and  _105
REMARK   45  A    between atoms: _105  and  _106
REMARK   46  A    between atoms: _106  and  _107
REMARK   47  A    between atoms: _107  and  _108
REMARK   48  A    between atoms: _108  and  _109
REMARK   49  A    between atoms: _113  and  _115
REMARK   50  A    between atoms: _115  and  _116
REMARK   51  A    between atoms: _115  and  _118
REMARK   52  A    between atoms: _118  and  _119
REMARK   53  A    between atoms: _119  and  _120
REMARK   54  A    between atoms: _122  and  _124
REMARK   55  A    between atoms: _124  and  _125
REMARK   56  A    between atoms: _124  and  _127
REMARK   57  A    between atoms: _127  and  _128
REMARK   58  A    between atoms: _131  and  _133
REMARK   59  A    between atoms: _133  and  _134
REMARK   60  A    between atoms: _136  and  _138
REMARK   61  A    between atoms: _138  and  _139
REMARK   62  A    between atoms: _141  and  _143
REMARK   63  A    between atoms: _143  and  _144
REMARK   64  A    between atoms: _143  and  _146
REMARK   65  A    between atoms: _146  and  _147
REMARK   66  A    between atoms: _150  and  _152
REMARK   67  A    between atoms: _152  and  _153
REMARK   68  A    between atoms: _155  and  _157
REMARK   69  A    between atoms: _157  and  _158
REMARK   70  A    between atoms: _160  and  _162
REMARK   71  A    between atoms: _162  and  _163
REMARK   72  A    between atoms: _162  and  _165
REMARK   73  A    between atoms: _165  and  _166
REMARK   74  A    between atoms: _172  and  _174
REMARK   75  A    between atoms: _174  and  _175
REMARK   76  A    between atoms: _174  and  _177
REMARK   77  A    between atoms: _177  and  _178
REMARK   78  A    between atoms: _181  and  _183
REMARK   79  A    between atoms: _183  and  _184
REMARK   80  A    between atoms: _183  and  _186
REMARK   81  A    between atoms: _189  and  _191
REMARK   82  A    between atoms: _191  and  _192
REMARK   83  A    between atoms: _191  and  _194
REMARK   84  A    between atoms: _197  and  _199
REMARK   85  A    between atoms: _199  and  _200
REMARK   86  A    between atoms: _199  and  _202
REMARK   87  A    between atoms: _202  and  _203
REMARK   88  A    between atoms: _207  and  _208
REMARK   89  A    between atoms: _213  and  _215
REMARK   90  A    between atoms: _215  and  _216
REMARK   91  A    between atoms: _215  and  _218
REMARK   92  A    between atoms: _221  and  _223
REMARK   93  A    between atoms: _223  and  _224
REMARK   94  A    between atoms: _223  and  _226
REMARK   95  A    between atoms: _226  and  _227
REMARK   96  A    between atoms: _232  and  _234
REMARK   97  A    between atoms: _234  and  _235
REMARK   98  A    between atoms: _234  and  _237
REMARK   99  A    between atoms: _237  and  _238
REMARK  100  A    between atoms: _241  and  _243
REMARK  101  A    between atoms: _243  and  _244
REMARK  102  A    between atoms: _243  and  _246
REMARK  103  A    between atoms: _246  and  _247
REMARK  104  A    between atoms: _250  and  _252
REMARK  105  A    between atoms: _252  and  _253
REMARK  106  A    between atoms: _255  and  _257
REMARK  107  A    between atoms: _257  and  _258
REMARK  108  A    between atoms: _257  and  _260
REMARK  109  A    between atoms: _260  and  _261
REMARK  110  A    between atoms: _261  and  _262
REMARK  111  A    between atoms: _262  and  _263
REMARK  112  A    between atoms: _272  and  _274
REMARK  113  A    between atoms: _274  and  _275
REMARK  114  A    between atoms: _274  and  _277
REMARK  115  A    between atoms: _277  and  _278
REMARK  116  A    between atoms: _283  and  _285
REMARK  117  A    between atoms: _285  and  _286
REMARK  118  A    between atoms: _285  and  _288
REMARK  119  A    between atoms: _288  and  _289
REMARK  120  A    between atoms: _289  and  _290
REMARK  121  A    between atoms: _290  and  _291
REMARK  122  A    between atoms: _300  and  _302
REMARK  123  A    between atoms: _302  and  _303
REMARK  124  A    between atoms: _302  and  _305
REMARK  125  A    between atoms: _305  and  _306
REMARK  126  A    between atoms: _309  and  _311
REMARK  127  A    between atoms: _311  and  _312
REMARK  128  A    between atoms: _311  and  _314
REMARK  129  A    between atoms: _314  and  _315
REMARK  130  A    between atoms: _318  and  _320
REMARK  131  A    between atoms: _320  and  _321
REMARK  132  A    between atoms: _320  and  _323
REMARK  133  A    between atoms: _323  and  _324
REMARK  134  A    between atoms: _327  and  _329
REMARK  135  A    between atoms: _329  and  _330
REMARK  136  A    between atoms: _329  and  _332
REMARK  137  A    between atoms: _332  and  _333
REMARK  138  A    between atoms: _336  and  _338
REMARK  139  A    between atoms: _338  and  _339
REMARK  140  A    between atoms: _341  and  _343
REMARK  141  A    between atoms: _343  and  _344
REMARK  142  A    between atoms: _347  and  _349
REMARK  143  A    between atoms: _349  and  _350
REMARK  144  A    between atoms: _349  and  _352
REMARK  145  A    between atoms: _352  and  _353
REMARK  146  A    between atoms: _356  and  _358
REMARK  147  A    between atoms: _358  and  _359
REMARK  148  A    between atoms: _358  and  _361
REMARK  149  A    between atoms: _361  and  _362
REMARK  150  A    between atoms: _365  and  _367
REMARK  151  A    between atoms: _367  and  _368
REMARK  152  A    between atoms: _367  and  _370
REMARK  153  A    between atoms: _370  and  _371
REMARK  154  A    between atoms: _374  and  _376
REMARK  155  A    between atoms: _376  and  _377
REMARK  156  A    between atoms: _376  and  _379
REMARK  157  A    between atoms: _382  and  _384
REMARK  158  A    between atoms: _384  and  _385
REMARK  159  A    between atoms: _384  and  _387
REMARK  160  A    between atoms: _387  and  _388
REMARK  161  A    between atoms: _388  and  _389
REMARK  162  A    between atoms: _389  and  _390
REMARK  163  A    between atoms: _390  and  _391
REMARK  164  A    between atoms: _395  and  _397
REMARK  165  A    between atoms: _397  and  _398
REMARK  166  A    between atoms: _397  and  _400
REMARK  167  A    between atoms: _400  and  _401
REMARK  168  A    between atoms: _401  and  _402
REMARK  169  A    between atoms: _404  and  _406
REMARK  170  A    between atoms: _406  and  _407
REMARK  171  A    between atoms: _406  and  _409
REMARK  172  A    between atoms: _409  and  _410
REMARK  173  A    between atoms: _413  and  _415
REMARK  174  A    between atoms: _415  and  _416
REMARK  175  A    between atoms: _418  and  _420
REMARK  176  A    between atoms: _420  and  _421
REMARK  177  A    between atoms: _423  and  _425
REMARK  178  A    between atoms: _425  and  _426
REMARK  179  A    between atoms: _425  and  _428
REMARK  180  A    between atoms: _428  and  _429
REMARK  181  A    between atoms: _432  and  _434
REMARK  182  A    between atoms: _434  and  _435
REMARK  183  A    between atoms: _437  and  _439
REMARK  184  A    between atoms: _439  and  _440
REMARK  185  A    between atoms: _442  and  _444
REMARK  186  A    between atoms: _444  and  _445
REMARK  187  A    between atoms: _444  and  _447
REMARK  188  A    between atoms: _447  and  _448
REMARK  189  A    between atoms: _454  and  _456
REMARK  190  A    between atoms: _456  and  _457
REMARK  191  A    between atoms: _456  and  _459
REMARK  192  A    between atoms: _459  and  _460
REMARK  193  A    between atoms: _463  and  _465
REMARK  194  A    between atoms: _465  and  _466
REMARK  195  A    between atoms: _465  and  _468
REMARK  196  A    between atoms: _471  and  _473
REMARK  197  A    between atoms: _473  and  _474
REMARK  198  A    between atoms: _473  and  _476
REMARK  199  A    between atoms: _479  and  _481
REMARK  200  A    between atoms: _481  and  _482
REMARK  201  A    between atoms: _481  and  _484
REMARK  202  A    between atoms: _484  and  _485
REMARK  203  A    between atoms: _489  and  _490
REMARK  204  A    between atoms: _495  and  _497
REMARK  205  A    between atoms: _497  and  _498
REMARK  206  A    between atoms: _497  and  _500
REMARK  207  A    between atoms: _503  and  _505
REMARK  208  A    between atoms: _505  and  _506
REMARK  209  A    between atoms: _505  and  _508
REMARK  210  A    between atoms: _508  and  _509
REMARK  211  A    between atoms: _514  and  _516
REMARK  212  A    between atoms: _516  and  _517
REMARK  213  A    between atoms: _516  and  _519
REMARK  214  A    between atoms: _519  and  _520
REMARK  215  A    between atoms: _523  and  _525
REMARK  216  A    between atoms: _525  and  _526
REMARK  217  A    between atoms: _525  and  _528
REMARK  218  A    between atoms: _528  and  _529
REMARK  219  A    between atoms: _532  and  _534
REMARK  220  A    between atoms: _534  and  _535
REMARK  221  A    between atoms: _537  and  _539
REMARK  222  A    between atoms: _539  and  _540
REMARK  223  A    between atoms: _539  and  _542
REMARK  224  A    between atoms: _542  and  _543
REMARK  225  A    between atoms: _543  and  _544
REMARK  226  A    between atoms: _544  and  _545
REMARK  227  A    between atoms: _554  and  _556
REMARK  228  A    between atoms: _556  and  _557
REMARK  229  A    between atoms: _556  and  _559
REMARK  230  A    between atoms: _559  and  _560
REMARK                            x       y       z     vdW  Elec       q    Type
REMARK                         _______ _______ _______ _____ _____    ______ ____
ROOT
ATOM      1  O   HOH     1      24.599  23.963  22.663  0.00  0.00    +0.000 OA
ENDROOT
TORSDOF 0
REMARK  Name = ../refined-set-2016/3pwm/3pwm_pocket.pdb
REMARK  230 active torsions:
REMARK  status: ('A' for Active; 'I' for Inactive)
REMARK    1  A    between atoms: _1  and  _3
REMARK    2  A    between atoms: _3  and  _4
REMARK    3  A    between atoms: _3  and  _6
REMARK    4  A    between atoms: _6  and  _7
REMARK    5  A    between atoms: _7  and  _8
REMARK    6  A    between atoms: _8  and  _9
REMARK    7  A    between atoms: _18  and  _20
REMARK    8  A    between atoms: _20  and  _21
REMARK    9  A    between atoms: _20  and  _23
REMARK   10  A    between atoms: _23  and  _24
REMARK   11  A    between atoms: _27  and  _29
REMARK   12  A    between atoms: _29  and  _30
REMARK   13  A    between atoms: _29  and  _32
REMARK   14  A    between atoms: _32  and  _33
REMARK   15  A    between atoms: _36  and  _38
REMARK   16  A    between atoms: _38  and  _39
REMARK   17  A    between atoms: _38  and  _41
REMARK   18  A    between atoms: _41  and  _42
REMARK   19  A    between atoms: _45  and  _47
REMARK   20  A    between atoms: _47  and  _48
REMARK   21  A    between atoms: _47  and  _50
REMARK   22  A    between atoms: _50  and  _51
REMARK   23  A    between atoms: _54  and  _56
REMARK   24  A    between atoms: _56  and  _57
REMARK   25  A    between atoms: _59  and  _61
REMARK   26  A    between atoms: _61  and  _62
REMARK   27  A    between atoms: _65  and  _67
REMARK   28  A    between atoms: _67  and  _68
REMARK   29  A    between atoms: _67  and  _70
REMARK   30  A    between atoms: _70  and  _71
REMARK   31  A    between atoms: _74  and  _76
REMARK   32  A    between atoms: _76  and  _77
REMARK   33  A    between atoms: _76  and  _79
REMARK   34  A    between atoms: _79  and  _80
REMARK   35  A    between atoms: _83  and  _85
REMARK   36  A    between atoms: _85  and  _86
REMARK   37  A    between atoms: _85  and  _88
REMARK   38  A    between atoms: _88  and  _89
REMARK   39  A    between atoms: _92  and  _94
REMARK   40  A    between atoms: _94  and  _95
REMARK   41  A    between atoms: _94  and  _97
REMARK   42  A    between atoms: _100  and  _102
REMARK   43  A    between atoms: _102  and  _103
REMARK   44  A    between atoms: _102  and  _105
REMARK   45  A    between atoms: _105  and  _106
REMARK   46  A    between atoms: _106  and  _107
REMARK   47  A    between atoms: _107  and  _108
REMARK   48  A    between atoms: _108  and  _109
REMARK   49  A    between atoms: _113  and  _115
REMARK   50  A    between atoms: _115  and  _116
REMARK   51  A    between atoms: _115  and  _118
REMARK   52  A    between atoms: _118  and  _119
REMARK   53  A    between atoms: _119  and  _120
REMARK   54  A    between atoms: _122  and  _124
REMARK   55  A    between atoms: _124  and  _125
REMARK   56  A    between atoms: _124  and  _127
REMARK   57  A    between atoms: _127  and  _128
REMARK   58  A    between atoms: _131  and  _133
REMARK   59  A    between atoms: _133  and  _134
REMARK   60  A    between atoms: _136  and  _138
REMARK   61  A    between atoms: _138  and  _139
REMARK   62  A    between atoms: _141  and  _143
REMARK   63  A    between atoms: _143  and  _144
REMARK   64  A    between atoms: _143  and  _146
REMARK   65  A    between atoms: _146  and  _147
REMARK   66  A    between atoms: _150  and  _152
REMARK   67  A    between atoms: _152  and  _153
REMARK   68  A    between atoms: _155  and  _157
REMARK   69  A    between atoms: _157  and  _158
REMARK   70  A    between atoms: _160  and  _162
REMARK   71  A    between atoms: _162  and  _163
REMARK   72  A    between atoms: _162  and  _165
REMARK   73  A    between atoms: _165  and  _166
REMARK   74  A    between atoms: _172  and  _174
REMARK   75  A    between atoms: _174  and  _175
REMARK   76  A    between atoms: _174  and  _177
REMARK   77  A    between atoms: _177  and  _178
REMARK   78  A    between atoms: _181  and  _183
REMARK   79  A    between atoms: _183  and  _184
REMARK   80  A    between atoms: _183  and  _186
REMARK   81  A    between atoms: _189  and  _191
REMARK   82  A    between atoms: _191  and  _192
REMARK   83  A    between atoms: _191  and  _194
REMARK   84  A    between atoms: _197  and  _199
REMARK   85  A    between atoms: _199  and  _200
REMARK   86  A    between atoms: _199  and  _202
REMARK   87  A    between atoms: _202  and  _203
REMARK   88  A    between atoms: _207  and  _208
REMARK   89  A    between atoms: _213  and  _215
REMARK   90  A    between atoms: _215  and  _216
REMARK   91  A    between atoms: _215  and  _218
REMARK   92  A    between atoms: _221  and  _223
REMARK   93  A    between atoms: _223  and  _224
REMARK   94  A    between atoms: _223  and  _226
REMARK   95  A    between atoms: _226  and  _227
REMARK   96  A    between atoms: _232  and  _234
REMARK   97  A    between atoms: _234  and  _235
REMARK   98  A    between atoms: _234  and  _237
REMARK   99  A    between atoms: _237  and  _238
REMARK  100  A    between atoms: _241  and  _243
REMARK  101  A    between atoms: _243  and  _244
REMARK  102  A    between atoms: _243  and  _246
REMARK  103  A    between atoms: _246  and  _247
REMARK  104  A    between atoms: _250  and  _252
REMARK  105  A    between atoms: _252  and  _253
REMARK  106  A    between atoms: _255  and  _257
REMARK  107  A    between atoms: _257  and  _258
REMARK  108  A    between atoms: _257  and  _260
REMARK  109  A    between atoms: _260  and  _261
REMARK  110  A    between atoms: _261  and  _262
REMARK  111  A    between atoms: _262  and  _263
REMARK  112  A    between atoms: _272  and  _274
REMARK  113  A    between atoms: _274  and  _275
REMARK  114  A    between atoms: _274  and  _277
REMARK  115  A    between atoms: _277  and  _278
REMARK  116  A    between atoms: _283  and  _285
REMARK  117  A    between atoms: _285  and  _286
REMARK  118  A    between atoms: _285  and  _288
REMARK  119  A    between atoms: _288  and  _289
REMARK  120  A    between atoms: _289  and  _290
REMARK  121  A    between atoms: _290  and  _291
REMARK  122  A    between atoms: _300  and  _302
REMARK  123  A    between atoms: _302  and  _303
REMARK  124  A    between atoms: _302  and  _305
REMARK  125  A    between atoms: _305  and  _306
REMARK  126  A    between atoms: _309  and  _311
REMARK  127  A    between atoms: _311  and  _312
REMARK  128  A    between atoms: _311  and  _314
REMARK  129  A    between atoms: _314  and  _315
REMARK  130  A    between atoms: _318  and  _320
REMARK  131  A    between atoms: _320  and  _321
REMARK  132  A    between atoms: _320  and  _323
REMARK  133  A    between atoms: _323  and  _324
REMARK  134  A    between atoms: _327  and  _329
REMARK  135  A    between atoms: _329  and  _330
REMARK  136  A    between atoms: _329  and  _332
REMARK  137  A    between atoms: _332  and  _333
REMARK  138  A    between atoms: _336  and  _338
REMARK  139  A    between atoms: _338  and  _339
REMARK  140  A    between atoms: _341  and  _343
REMARK  141  A    between atoms: _343  and  _344
REMARK  142  A    between atoms: _347  and  _349
REMARK  143  A    between atoms: _349  and  _350
REMARK  144  A    between atoms: _349  and  _352
REMARK  145  A    between atoms: _352  and  _353
REMARK  146  A    between atoms: _356  and  _358
REMARK  147  A    between atoms: _358  and  _359
REMARK  148  A    between atoms: _358  and  _361
REMARK  149  A    between atoms: _361  and  _362
REMARK  150  A    between atoms: _365  and  _367
REMARK  151  A    between atoms: _367  and  _368
REMARK  152  A    between atoms: _367  and  _370
REMARK  153  A    between atoms: _370  and  _371
REMARK  154  A    between atoms: _374  and  _376
REMARK  155  A    between atoms: _376  and  _377
REMARK  156  A    between atoms: _376  and  _379
REMARK  157  A    between atoms: _382  and  _384
REMARK  158  A    between atoms: _384  and  _385
REMARK  159  A    between atoms: _384  and  _387
REMARK  160  A    between atoms: _387  and  _388
REMARK  161  A    between atoms: _388  and  _389
REMARK  162  A    between atoms: _389  and  _390
REMARK  163  A    between atoms: _390  and  _391
REMARK  164  A    between atoms: _395  and  _397
REMARK  165  A    between atoms: _397  and  _398
REMARK  166  A    between atoms: _397  and  _400
REMARK  167  A    between atoms: _400  and  _401
REMARK  168  A    between atoms: _401  and  _402
REMARK  169  A    between atoms: _404  and  _406
REMARK  170  A    between atoms: _406  and  _407
REMARK  171  A    between atoms: _406  and  _409
REMARK  172  A    between atoms: _409  and  _410
REMARK  173  A    between atoms: _413  and  _415
REMARK  174  A    between atoms: _415  and  _416
REMARK  175  A    between atoms: _418  and  _420
REMARK  176  A    between atoms: _420  and  _421
REMARK  177  A    between atoms: _423  and  _425
REMARK  178  A    between atoms: _425  and  _426
REMARK  179  A    between atoms: _425  and  _428
REMARK  180  A    between atoms: _428  and  _429
REMARK  181  A    between atoms: _432  and  _434
REMARK  182  A    between atoms: _434  and  _435
REMARK  183  A    between atoms: _437  and  _439
REMARK  184  A    between atoms: _439  and  _440
REMARK  185  A    between atoms: _442  and  _444
REMARK  186  A    between atoms: _444  and  _445
REMARK  187  A    between atoms: _444  and  _447
REMARK  188  A    between atoms: _447  and  _448
REMARK  189  A    between atoms: _454  and  _456
REMARK  190  A    between atoms: _456  and  _457
REMARK  191  A    between atoms: _456  and  _459
REMARK  192  A    between atoms: _459  and  _460
REMARK  193  A    between atoms: _463  and  _465
REMARK  194  A    between atoms: _465  and  _466
REMARK  195  A    between atoms: _465  and  _468
REMARK  196  A    between atoms: _471  and  _473
REMARK  197  A    between atoms: _473  and  _474
REMARK  198  A    between atoms: _473  and  _476
REMARK  199  A    between atoms: _479  and  _481
REMARK  200  A    between atoms: _481  and  _482
REMARK  201  A    between atoms: _481  and  _484
REMARK  202  A    between atoms: _484  and  _485
REMARK  203  A    between atoms: _489  and  _490
REMARK  204  A    between atoms: _495  and  _497
REMARK  205  A    between atoms: _497  and  _498
REMARK  206  A    between atoms: _497  and  _500
REMARK  207  A    between atoms: _503  and  _505
REMARK  208  A    between atoms: _505  and  _506
REMARK  209  A    between atoms: _505  and  _508
REMARK  210  A    between atoms: _508  and  _509
REMARK  211  A    between atoms: _514  and  _516
REMARK  212  A    between atoms: _516  and  _517
REMARK  213  A    between atoms: _516  and  _519
REMARK  214  A    between atoms: _519  and  _520
REMARK  215  A    between atoms: _523  and  _525
REMARK  216  A    between atoms: _525  and  _526
REMARK  217  A    between atoms: _525  and  _528
REMARK  218  A    between atoms: _528  and  _529
REMARK  219  A    between atoms: _532  and  _534
REMARK  220  A    between atoms: _534  and  _535
REMARK  221  A    between atoms: _537  and  _539
REMARK  222  A    between atoms: _539  and  _540
REMARK  223  A    between atoms: _539  and  _542
REMARK  224  A    between atoms: _542  and  _543
REMARK  225  A    between atoms: _543  and  _544
REMARK  226  A    between atoms: _544  and  _545
REMARK  227  A    between atoms: _554  and  _556
REMARK  228  A    between atoms: _556  and  _557
REMARK  229  A    between atoms: _556  and  _559
REMARK  230  A    between atoms: _559  and  _560
REMARK                            x       y       z     vdW  Elec       q    Type
REMARK                         _______ _______ _______ _____ _____    ______ ____
ROOT
ATOM      1  O   HOH     1       9.789  25.285   8.915  0.00  0.00    +0.000 OA
ENDROOT
TORSDOF 0
REMARK  Name = ../refined-set-2016/3pwm/3pwm_pocket.pdb
REMARK  230 active torsions:
REMARK  status: ('A' for Active; 'I' for Inactive)
REMARK    1  A    between atoms: _1  and  _3
REMARK    2  A    between atoms: _3  and  _4
REMARK    3  A    between atoms: _3  and  _6
REMARK    4  A    between atoms: _6  and  _7
REMARK    5  A    between atoms: _7  and  _8
REMARK    6  A    between atoms: _8  and  _9
REMARK    7  A    between atoms: _18  and  _20
REMARK    8  A    between atoms: _20  and  _21
REMARK    9  A    between atoms: _20  and  _23
REMARK   10  A    between atoms: _23  and  _24
REMARK   11  A    between atoms: _27  and  _29
REMARK   12  A    between atoms: _29  and  _30
REMARK   13  A    between atoms: _29  and  _32
REMARK   14  A    between atoms: _32  and  _33
REMARK   15  A    between atoms: _36  and  _38
REMARK   16  A    between atoms: _38  and  _39
REMARK   17  A    between atoms: _38  and  _41
REMARK   18  A    between atoms: _41  and  _42
REMARK   19  A    between atoms: _45  and  _47
REMARK   20  A    between atoms: _47  and  _48
REMARK   21  A    between atoms: _47  and  _50
REMARK   22  A    between atoms: _50  and  _51
REMARK   23  A    between atoms: _54  and  _56
REMARK   24  A    between atoms: _56  and  _57
REMARK   25  A    between atoms: _59  and  _61
REMARK   26  A    between atoms: _61  and  _62
REMARK   27  A    between atoms: _65  and  _67
REMARK   28  A    between atoms: _67  and  _68
REMARK   29  A    between atoms: _67  and  _70
REMARK   30  A    between atoms: _70  and  _71
REMARK   31  A    between atoms: _74  and  _76
REMARK   32  A    between atoms: _76  and  _77
REMARK   33  A    between atoms: _76  and  _79
REMARK   34  A    between atoms: _79  and  _80
REMARK   35  A    between atoms: _83  and  _85
REMARK   36  A    between atoms: _85  and  _86
REMARK   37  A    between atoms: _85  and  _88
REMARK   38  A    between atoms: _88  and  _89
REMARK   39  A    between atoms: _92  and  _94
REMARK   40  A    between atoms: _94  and  _95
REMARK   41  A    between atoms: _94  and  _97
REMARK   42  A    between atoms: _100  and  _102
REMARK   43  A    between atoms: _102  and  _103
REMARK   44  A    between atoms: _102  and  _105
REMARK   45  A    between atoms: _105  and  _106
REMARK   46  A    between atoms: _106  and  _107
REMARK   47  A    between atoms: _107  and  _108
REMARK   48  A    between atoms: _108  and  _109
REMARK   49  A    between atoms: _113  and  _115
REMARK   50  A    between atoms: _115  and  _116
REMARK   51  A    between atoms: _115  and  _118
REMARK   52  A    between atoms: _118  and  _119
REMARK   53  A    between atoms: _119  and  _120
REMARK   54  A    between atoms: _122  and  _124
REMARK   55  A    between atoms: _124  and  _125
REMARK   56  A    between atoms: _124  and  _127
REMARK   57  A    between atoms: _127  and  _128
REMARK   58  A    between atoms: _131  and  _133
REMARK   59  A    between atoms: _133  and  _134
REMARK   60  A    between atoms: _136  and  _138
REMARK   61  A    between atoms: _138  and  _139
REMARK   62  A    between atoms: _141  and  _143
REMARK   63  A    between atoms: _143  and  _144
REMARK   64  A    between atoms: _143  and  _146
REMARK   65  A    between atoms: _146  and  _147
REMARK   66  A    between atoms: _150  and  _152
REMARK   67  A    between atoms: _152  and  _153
REMARK   68  A    between atoms: _155  and  _157
REMARK   69  A    between atoms: _157  and  _158
REMARK   70  A    between atoms: _160  and  _162
REMARK   71  A    between atoms: _162  and  _163
REMARK   72  A    between atoms: _162  and  _165
REMARK   73  A    between atoms: _165  and  _166
REMARK   74  A    between atoms: _172  and  _174
REMARK   75  A    between atoms: _174  and  _175
REMARK   76  A    between atoms: _174  and  _177
REMARK   77  A    between atoms: _177  and  _178
REMARK   78  A    between atoms: _181  and  _183
REMARK   79  A    between atoms: _183  and  _184
REMARK   80  A    between atoms: _183  and  _186
REMARK   81  A    between atoms: _189  and  _191
REMARK   82  A    between atoms: _191  and  _192
REMARK   83  A    between atoms: _191  and  _194
REMARK   84  A    between atoms: _197  and  _199
REMARK   85  A    between atoms: _199  and  _200
REMARK   86  A    between atoms: _199  and  _202
REMARK   87  A    between atoms: _202  and  _203
REMARK   88  A    between atoms: _207  and  _208
REMARK   89  A    between atoms: _213  and  _215
REMARK   90  A    between atoms: _215  and  _216
REMARK   91  A    between atoms: _215  and  _218
REMARK   92  A    between atoms: _221  and  _223
REMARK   93  A    between atoms: _223  and  _224
REMARK   94  A    between atoms: _223  and  _226
REMARK   95  A    between atoms: _226  and  _227
REMARK   96  A    between atoms: _232  and  _234
REMARK   97  A    between atoms: _234  and  _235
REMARK   98  A    between atoms: _234  and  _237
REMARK   99  A    between atoms: _237  and  _238
REMARK  100  A    between atoms: _241  and  _243
REMARK  101  A    between atoms: _243  and  _244
REMARK  102  A    between atoms: _243  and  _246
REMARK  103  A    between atoms: _246  and  _247
REMARK  104  A    between atoms: _250  and  _252
REMARK  105  A    between atoms: _252  and  _253
REMARK  106  A    between atoms: _255  and  _257
REMARK  107  A    between atoms: _257  and  _258
REMARK  108  A    between atoms: _257  and  _260
REMARK  109  A    between atoms: _260  and  _261
REMARK  110  A    between atoms: _261  and  _262
REMARK  111  A    between atoms: _262  and  _263
REMARK  112  A    between atoms: _272  and  _274
REMARK  113  A    between atoms: _274  and  _275
REMARK  114  A    between atoms: _274  and  _277
REMARK  115  A    between atoms: _277  and  _278
REMARK  116  A    between atoms: _283  and  _285
REMARK  117  A    between atoms: _285  and  _286
REMARK  118  A    between atoms: _285  and  _288
REMARK  119  A    between atoms: _288  and  _289
REMARK  120  A    between atoms: _289  and  _290
REMARK  121  A    between atoms: _290  and  _291
REMARK  122  A    between atoms: _300  and  _302
REMARK  123  A    between atoms: _302  and  _303
REMARK  124  A    between atoms: _302  and  _305
REMARK  125  A    between atoms: _305  and  _306
REMARK  126  A    between atoms: _309  and  _311
REMARK  127  A    between atoms: _311  and  _312
REMARK  128  A    between atoms: _311  and  _314
REMARK  129  A    between atoms: _314  and  _315
REMARK  130  A    between atoms: _318  and  _320
REMARK  131  A    between atoms: _320  and  _321
REMARK  132  A    between atoms: _320  and  _323
REMARK  133  A    between atoms: _323  and  _324
REMARK  134  A    between atoms: _327  and  _329
REMARK  135  A    between atoms: _329  and  _330
REMARK  136  A    between atoms: _329  and  _332
REMARK  137  A    between atoms: _332  and  _333
REMARK  138  A    between atoms: _336  and  _338
REMARK  139  A    between atoms: _338  and  _339
REMARK  140  A    between atoms: _341  and  _343
REMARK  141  A    between atoms: _343  and  _344
REMARK  142  A    between atoms: _347  and  _349
REMARK  143  A    between atoms: _349  and  _350
REMARK  144  A    between atoms: _349  and  _352
REMARK  145  A    between atoms: _352  and  _353
REMARK  146  A    between atoms: _356  and  _358
REMARK  147  A    between atoms: _358  and  _359
REMARK  148  A    between atoms: _358  and  _361
REMARK  149  A    between atoms: _361  and  _362
REMARK  150  A    between atoms: _365  and  _367
REMARK  151  A    between atoms: _367  and  _368
REMARK  152  A    between atoms: _367  and  _370
REMARK  153  A    between atoms: _370  and  _371
REMARK  154  A    between atoms: _374  and  _376
REMARK  155  A    between atoms: _376  and  _377
REMARK  156  A    between atoms: _376  and  _379
REMARK  157  A    between atoms: _382  and  _384
REMARK  158  A    between atoms: _384  and  _385
REMARK  159  A    between atoms: _384  and  _387
REMARK  160  A    between atoms: _387  and  _388
REMARK  161  A    between atoms: _388  and  _389
REMARK  162  A    between atoms: _389  and  _390
REMARK  163  A    between atoms: _390  and  _391
REMARK  164  A    between atoms: _395  and  _397
REMARK  165  A    between atoms: _397  and  _398
REMARK  166  A    between atoms: _397  and  _400
REMARK  167  A    between atoms: _400  and  _401
REMARK  168  A    between atoms: _401  and  _402
REMARK  169  A    between atoms: _404  and  _406
REMARK  170  A    between atoms: _406  and  _407
REMARK  171  A    between atoms: _406  and  _409
REMARK  172  A    between atoms: _409  and  _410
REMARK  173  A    between atoms: _413  and  _415
REMARK  174  A    between atoms: _415  and  _416
REMARK  175  A    between atoms: _418  and  _420
REMARK  176  A    between atoms: _420  and  _421
REMARK  177  A    between atoms: _423  and  _425
REMARK  178  A    between atoms: _425  and  _426
REMARK  179  A    between atoms: _425  and  _428
REMARK  180  A    between atoms: _428  and  _429
REMARK  181  A    between atoms: _432  and  _434
REMARK  182  A    between atoms: _434  and  _435
REMARK  183  A    between atoms: _437  and  _439
REMARK  184  A    between atoms: _439  and  _440
REMARK  185  A    between atoms: _442  and  _444
REMARK  186  A    between atoms: _444  and  _445
REMARK  187  A    between atoms: _444  and  _447
REMARK  188  A    between atoms: _447  and  _448
REMARK  189  A    between atoms: _454  and  _456
REMARK  190  A    between atoms: _456  and  _457
REMARK  191  A    between atoms: _456  and  _459
REMARK  192  A    between atoms: _459  and  _460
REMARK  193  A    between atoms: _463  and  _465
REMARK  194  A    between atoms: _465  and  _466
REMARK  195  A    between atoms: _465  and  _468
REMARK  196  A    between atoms: _471  and  _473
REMARK  197  A    between atoms: _473  and  _474
REMARK  198  A    between atoms: _473  and  _476
REMARK  199  A    between atoms: _479  and  _481
REMARK  200  A    between atoms: _481  and  _482
REMARK  201  A    between atoms: _481  and  _484
REMARK  202  A    between atoms: _484  and  _485
REMARK  203  A    between atoms: _489  and  _490
REMARK  204  A    between atoms: _495  and  _497
REMARK  205  A    between atoms: _497  and  _498
REMARK  206  A    between atoms: _497  and  _500
REMARK  207  A    between atoms: _503  and  _505
REMARK  208  A    between atoms: _505  and  _506
REMARK  209  A    between atoms: _505  and  _508
REMARK  210  A    between atoms: _508  and  _509
REMARK  211  A    between atoms: _514  and  _516
REMARK  212  A    between atoms: _516  and  _517
REMARK  213  A    between atoms: _516  and  _519
REMARK  214  A    between atoms: _519  and  _520
REMARK  215  A    between atoms: _523  and  _525
REMARK  216  A    between atoms: _525  and  _526
REMARK  217  A    between atoms: _525  and  _528
REMARK  218  A    between atoms: _528  and  _529
REMARK  219  A    between atoms: _532  and  _534
REMARK  220  A    between atoms: _534  and  _535
REMARK  221  A    between atoms: _537  and  _539
REMARK  222  A    between atoms: _539  and  _540
REMARK  223  A    between atoms: _539  and  _542
REMARK  224  A    between atoms: _542  and  _543
REMARK  225  A    between atoms: _543  and  _544
REMARK  226  A    between atoms: _544  and  _545
REMARK  227  A    between atoms: _554  and  _556
REMARK  228  A    between atoms: _556  and  _557
REMARK  229  A    between atoms: _556  and  _559
REMARK  230  A    between atoms: _559  and  _560
REMARK                            x       y       z     vdW  Elec       q    Type
REMARK                         _______ _______ _______ _____ _____    ______ ____
ROOT
ATOM      1  O   HOH     1      15.842  26.831  11.766  0.00  0.00    +0.000 OA
ENDROOT
TORSDOF 0
REMARK  Name = ../refined-set-2016/3pwm/3pwm_pocket.pdb
REMARK  230 active torsions:
REMARK  status: ('A' for Active; 'I' for Inactive)
REMARK    1  A    between atoms: _1  and  _3
REMARK    2  A    between atoms: _3  and  _4
REMARK    3  A    between atoms: _3  and  _6
REMARK    4  A    between atoms: _6  and  _7
REMARK    5  A    between atoms: _7  and  _8
REMARK    6  A    between atoms: _8  and  _9
REMARK    7  A    between atoms: _18  and  _20
REMARK    8  A    between atoms: _20  and  _21
REMARK    9  A    between atoms: _20  and  _23
REMARK   10  A    between atoms: _23  and  _24
REMARK   11  A    between atoms: _27  and  _29
REMARK   12  A    between atoms: _29  and  _30
REMARK   13  A    between atoms: _29  and  _32
REMARK   14  A    between atoms: _32  and  _33
REMARK   15  A    between atoms: _36  and  _38
REMARK   16  A    between atoms: _38  and  _39
REMARK   17  A    between atoms: _38  and  _41
REMARK   18  A    between atoms: _41  and  _42
REMARK   19  A    between atoms: _45  and  _47
REMARK   20  A    between atoms: _47  and  _48
REMARK   21  A    between atoms: _47  and  _50
REMARK   22  A    between atoms: _50  and  _51
REMARK   23  A    between atoms: _54  and  _56
REMARK   24  A    between atoms: _56  and  _57
REMARK   25  A    between atoms: _59  and  _61
REMARK   26  A    between atoms: _61  and  _62
REMARK   27  A    between atoms: _65  and  _67
REMARK   28  A    between atoms: _67  and  _68
REMARK   29  A    between atoms: _67  and  _70
REMARK   30  A    between atoms: _70  and  _71
REMARK   31  A    between atoms: _74  and  _76
REMARK   32  A    between atoms: _76  and  _77
REMARK   33  A    between atoms: _76  and  _79
REMARK   34  A    between atoms: _79  and  _80
REMARK   35  A    between atoms: _83  and  _85
REMARK   36  A    between atoms: _85  and  _86
REMARK   37  A    between atoms: _85  and  _88
REMARK   38  A    between atoms: _88  and  _89
REMARK   39  A    between atoms: _92  and  _94
REMARK   40  A    between atoms: _94  and  _95
REMARK   41  A    between atoms: _94  and  _97
REMARK   42  A    between atoms: _100  and  _102
REMARK   43  A    between atoms: _102  and  _103
REMARK   44  A    between atoms: _102  and  _105
REMARK   45  A    between atoms: _105  and  _106
REMARK   46  A    between atoms: _106  and  _107
REMARK   47  A    between atoms: _107  and  _108
REMARK   48  A    between atoms: _108  and  _109
REMARK   49  A    between atoms: _113  and  _115
REMARK   50  A    between atoms: _115  and  _116
REMARK   51  A    between atoms: _115  and  _118
REMARK   52  A    between atoms: _118  and  _119
REMARK   53  A    between atoms: _119  and  _120
REMARK   54  A    between atoms: _122  and  _124
REMARK   55  A    between atoms: _124  and  _125
REMARK   56  A    between atoms: _124  and  _127
REMARK   57  A    between atoms: _127  and  _128
REMARK   58  A    between atoms: _131  and  _133
REMARK   59  A    between atoms: _133  and  _134
REMARK   60  A    between atoms: _136  and  _138
REMARK   61  A    between atoms: _138  and  _139
REMARK   62  A    between atoms: _141  and  _143
REMARK   63  A    between atoms: _143  and  _144
REMARK   64  A    between atoms: _143  and  _146
REMARK   65  A    between atoms: _146  and  _147
REMARK   66  A    between atoms: _150  and  _152
REMARK   67  A    between atoms: _152  and  _153
REMARK   68  A    between atoms: _155  and  _157
REMARK   69  A    between atoms: _157  and  _158
REMARK   70  A    between atoms: _160  and  _162
REMARK   71  A    between atoms: _162  and  _163
REMARK   72  A    between atoms: _162  and  _165
REMARK   73  A    between atoms: _165  and  _166
REMARK   74  A    between atoms: _172  and  _174
REMARK   75  A    between atoms: _174  and  _175
REMARK   76  A    between atoms: _174  and  _177
REMARK   77  A    between atoms: _177  and  _178
REMARK   78  A    between atoms: _181  and  _183
REMARK   79  A    between atoms: _183  and  _184
REMARK   80  A    between atoms: _183  and  _186
REMARK   81  A    between atoms: _189  and  _191
REMARK   82  A    between atoms: _191  and  _192
REMARK   83  A    between atoms: _191  and  _194
REMARK   84  A    between atoms: _197  and  _199
REMARK   85  A    between atoms: _199  and  _200
REMARK   86  A    between atoms: _199  and  _202
REMARK   87  A    between atoms: _202  and  _203
REMARK   88  A    between atoms: _207  and  _208
REMARK   89  A    between atoms: _213  and  _215
REMARK   90  A    between atoms: _215  and  _216
REMARK   91  A    between atoms: _215  and  _218
REMARK   92  A    between atoms: _221  and  _223
REMARK   93  A    between atoms: _223  and  _224
REMARK   94  A    between atoms: _223  and  _226
REMARK   95  A    between atoms: _226  and  _227
REMARK   96  A    between atoms: _232  and  _234
REMARK   97  A    between atoms: _234  and  _235
REMARK   98  A    between atoms: _234  and  _237
REMARK   99  A    between atoms: _237  and  _238
REMARK  100  A    between atoms: _241  and  _243
REMARK  101  A    between atoms: _243  and  _244
REMARK  102  A    between atoms: _243  and  _246
REMARK  103  A    between atoms: _246  and  _247
REMARK  104  A    between atoms: _250  and  _252
REMARK  105  A    between atoms: _252  and  _253
REMARK  106  A    between atoms: _255  and  _257
REMARK  107  A    between atoms: _257  and  _258
REMARK  108  A    between atoms: _257  and  _260
REMARK  109  A    between atoms: _260  and  _261
REMARK  110  A    between atoms: _261  and  _262
REMARK  111  A    between atoms: _262  and  _263
REMARK  112  A    between atoms: _272  and  _274
REMARK  113  A    between atoms: _274  and  _275
REMARK  114  A    between atoms: _274  and  _277
REMARK  115  A    between atoms: _277  and  _278
REMARK  116  A    between atoms: _283  and  _285
REMARK  117  A    between atoms: _285  and  _286
REMARK  118  A    between atoms: _285  and  _288
REMARK  119  A    between atoms: _288  and  _289
REMARK  120  A    between atoms: _289  and  _290
REMARK  121  A    between atoms: _290  and  _291
REMARK  122  A    between atoms: _300  and  _302
REMARK  123  A    between atoms: _302  and  _303
REMARK  124  A    between atoms: _302  and  _305
REMARK  125  A    between atoms: _305  and  _306
REMARK  126  A    between atoms: _309  and  _311
REMARK  127  A    between atoms: _311  and  _312
REMARK  128  A    between atoms: _311  and  _314
REMARK  129  A    between atoms: _314  and  _315
REMARK  130  A    between atoms: _318  and  _320
REMARK  131  A    between atoms: _320  and  _321
REMARK  132  A    between atoms: _320  and  _323
REMARK  133  A    between atoms: _323  and  _324
REMARK  134  A    between atoms: _327  and  _329
REMARK  135  A    between atoms: _329  and  _330
REMARK  136  A    between atoms: _329  and  _332
REMARK  137  A    between atoms: _332  and  _333
REMARK  138  A    between atoms: _336  and  _338
REMARK  139  A    between atoms: _338  and  _339
REMARK  140  A    between atoms: _341  and  _343
REMARK  141  A    between atoms: _343  and  _344
REMARK  142  A    between atoms: _347  and  _349
REMARK  143  A    between atoms: _349  and  _350
REMARK  144  A    between atoms: _349  and  _352
REMARK  145  A    between atoms: _352  and  _353
REMARK  146  A    between atoms: _356  and  _358
REMARK  147  A    between atoms: _358  and  _359
REMARK  148  A    between atoms: _358  and  _361
REMARK  149  A    between atoms: _361  and  _362
REMARK  150  A    between atoms: _365  and  _367
REMARK  151  A    between atoms: _367  and  _368
REMARK  152  A    between atoms: _367  and  _370
REMARK  153  A    between atoms: _370  and  _371
REMARK  154  A    between atoms: _374  and  _376
REMARK  155  A    between atoms: _376  and  _377
REMARK  156  A    between atoms: _376  and  _379
REMARK  157  A    between atoms: _382  and  _384
REMARK  158  A    between atoms: _384  and  _385
REMARK  159  A    between atoms: _384  and  _387
REMARK  160  A    between atoms: _387  and  _388
REMARK  161  A    between atoms: _388  and  _389
REMARK  162  A    between atoms: _389  and  _390
REMARK  163  A    between atoms: _390  and  _391
REMARK  164  A    between atoms: _395  and  _397
REMARK  165  A    between atoms: _397  and  _398
REMARK  166  A    between atoms: _397  and  _400
REMARK  167  A    between atoms: _400  and  _401
REMARK  168  A    between atoms: _401  and  _402
REMARK  169  A    between atoms: _404  and  _406
REMARK  170  A    between atoms: _406  and  _407
REMARK  171  A    between atoms: _406  and  _409
REMARK  172  A    between atoms: _409  and  _410
REMARK  173  A    between atoms: _413  and  _415
REMARK  174  A    between atoms: _415  and  _416
REMARK  175  A    between atoms: _418  and  _420
REMARK  176  A    between atoms: _420  and  _421
REMARK  177  A    between atoms: _423  and  _425
REMARK  178  A    between atoms: _425  and  _426
REMARK  179  A    between atoms: _425  and  _428
REMARK  180  A    between atoms: _428  and  _429
REMARK  181  A    between atoms: _432  and  _434
REMARK  182  A    between atoms: _434  and  _435
REMARK  183  A    between atoms: _437  and  _439
REMARK  184  A    between atoms: _439  and  _440
REMARK  185  A    between atoms: _442  and  _444
REMARK  186  A    between atoms: _444  and  _445
REMARK  187  A    between atoms: _444  and  _447
REMARK  188  A    between atoms: _447  and  _448
REMARK  189  A    between atoms: _454  and  _456
REMARK  190  A    between atoms: _456  and  _457
REMARK  191  A    between atoms: _456  and  _459
REMARK  192  A    between atoms: _459  and  _460
REMARK  193  A    between atoms: _463  and  _465
REMARK  194  A    between atoms: _465  and  _466
REMARK  195  A    between atoms: _465  and  _468
REMARK  196  A    between atoms: _471  and  _473
REMARK  197  A    between atoms: _473  and  _474
REMARK  198  A    between atoms: _473  and  _476
REMARK  199  A    between atoms: _479  and  _481
REMARK  200  A    between atoms: _481  and  _482
REMARK  201  A    between atoms: _481  and  _484
REMARK  202  A    between atoms: _484  and  _485
REMARK  203  A    between atoms: _489  and  _490
REMARK  204  A    between atoms: _495  and  _497
REMARK  205  A    between atoms: _497  and  _498
REMARK  206  A    between atoms: _497  and  _500
REMARK  207  A    between atoms: _503  and  _505
REMARK  208  A    between atoms: _505  and  _506
REMARK  209  A    between atoms: _505  and  _508
REMARK  210  A    between atoms: _508  and  _509
REMARK  211  A    between atoms: _514  and  _516
REMARK  212  A    between atoms: _516  and  _517
REMARK  213  A    between atoms: _516  and  _519
REMARK  214  A    between atoms: _519  and  _520
REMARK  215  A    between atoms: _523  and  _525
REMARK  216  A    between atoms: _525  and  _526
REMARK  217  A    between atoms: _525  and  _528
REMARK  218  A    between atoms: _528  and  _529
REMARK  219  A    between atoms: _532  and  _534
REMARK  220  A    between atoms: _534  and  _535
REMARK  221  A    between atoms: _537  and  _539
REMARK  222  A    between atoms: _539  and  _540
REMARK  223  A    between atoms: _539  and  _542
REMARK  224  A    between atoms: _542  and  _543
REMARK  225  A    between atoms: _543  and  _544
REMARK  226  A    between atoms: _544  and  _545
REMARK  227  A    between atoms: _554  and  _556
REMARK  228  A    between atoms: _556  and  _557
REMARK  229  A    between atoms: _556  and  _559
REMARK  230  A    between atoms: _559  and  _560
REMARK                            x       y       z     vdW  Elec       q    Type
REMARK                         _______ _______ _______ _____ _____    ______ ____
ROOT
ATOM      1  O   HOH     1       7.135  15.479  22.824  0.00  0.00    +0.000 OA
ENDROOT
TORSDOF 0
REMARK  Name = ../refined-set-2016/3pwm/3pwm_pocket.pdb
REMARK  230 active torsions:
REMARK  status: ('A' for Active; 'I' for Inactive)
REMARK    1  A    between atoms: _1  and  _3
REMARK    2  A    between atoms: _3  and  _4
REMARK    3  A    between atoms: _3  and  _6
REMARK    4  A    between atoms: _6  and  _7
REMARK    5  A    between atoms: _7  and  _8
REMARK    6  A    between atoms: _8  and  _9
REMARK    7  A    between atoms: _18  and  _20
REMARK    8  A    between atoms: _20  and  _21
REMARK    9  A    between atoms: _20  and  _23
REMARK   10  A    between atoms: _23  and  _24
REMARK   11  A    between atoms: _27  and  _29
REMARK   12  A    between atoms: _29  and  _30
REMARK   13  A    between atoms: _29  and  _32
REMARK   14  A    between atoms: _32  and  _33
REMARK   15  A    between atoms: _36  and  _38
REMARK   16  A    between atoms: _38  and  _39
REMARK   17  A    between atoms: _38  and  _41
REMARK   18  A    between atoms: _41  and  _42
REMARK   19  A    between atoms: _45  and  _47
REMARK   20  A    between atoms: _47  and  _48
REMARK   21  A    between atoms: _47  and  _50
REMARK   22  A    between atoms: _50  and  _51
REMARK   23  A    between atoms: _54  and  _56
REMARK   24  A    between atoms: _56  and  _57
REMARK   25  A    between atoms: _59  and  _61
REMARK   26  A    between atoms: _61  and  _62
REMARK   27  A    between atoms: _65  and  _67
REMARK   28  A    between atoms: _67  and  _68
REMARK   29  A    between atoms: _67  and  _70
REMARK   30  A    between atoms: _70  and  _71
REMARK   31  A    between atoms: _74  and  _76
REMARK   32  A    between atoms: _76  and  _77
REMARK   33  A    between atoms: _76  and  _79
REMARK   34  A    between atoms: _79  and  _80
REMARK   35  A    between atoms: _83  and  _85
REMARK   36  A    between atoms: _85  and  _86
REMARK   37  A    between atoms: _85  and  _88
REMARK   38  A    between atoms: _88  and  _89
REMARK   39  A    between atoms: _92  and  _94
REMARK   40  A    between atoms: _94  and  _95
REMARK   41  A    between atoms: _94  and  _97
REMARK   42  A    between atoms: _100  and  _102
REMARK   43  A    between atoms: _102  and  _103
REMARK   44  A    between atoms: _102  and  _105
REMARK   45  A    between atoms: _105  and  _106
REMARK   46  A    between atoms: _106  and  _107
REMARK   47  A    between atoms: _107  and  _108
REMARK   48  A    between atoms: _108  and  _109
REMARK   49  A    between atoms: _113  and  _115
REMARK   50  A    between atoms: _115  and  _116
REMARK   51  A    between atoms: _115  and  _118
REMARK   52  A    between atoms: _118  and  _119
REMARK   53  A    between atoms: _119  and  _120
REMARK   54  A    between atoms: _122  and  _124
REMARK   55  A    between atoms: _124  and  _125
REMARK   56  A    between atoms: _124  and  _127
REMARK   57  A    between atoms: _127  and  _128
REMARK   58  A    between atoms: _131  and  _133
REMARK   59  A    between atoms: _133  and  _134
REMARK   60  A    between atoms: _136  and  _138
REMARK   61  A    between atoms: _138  and  _139
REMARK   62  A    between atoms: _141  and  _143
REMARK   63  A    between atoms: _143  and  _144
REMARK   64  A    between atoms: _143  and  _146
REMARK   65  A    between atoms: _146  and  _147
REMARK   66  A    between atoms: _150  and  _152
REMARK   67  A    between atoms: _152  and  _153
REMARK   68  A    between atoms: _155  and  _157
REMARK   69  A    between atoms: _157  and  _158
REMARK   70  A    between atoms: _160  and  _162
REMARK   71  A    between atoms: _162  and  _163
REMARK   72  A    between atoms: _162  and  _165
REMARK   73  A    between atoms: _165  and  _166
REMARK   74  A    between atoms: _172  and  _174
REMARK   75  A    between atoms: _174  and  _175
REMARK   76  A    between atoms: _174  and  _177
REMARK   77  A    between atoms: _177  and  _178
REMARK   78  A    between atoms: _181  and  _183
REMARK   79  A    between atoms: _183  and  _184
REMARK   80  A    between atoms: _183  and  _186
REMARK   81  A    between atoms: _189  and  _191
REMARK   82  A    between atoms: _191  and  _192
REMARK   83  A    between atoms: _191  and  _194
REMARK   84  A    between atoms: _197  and  _199
REMARK   85  A    between atoms: _199  and  _200
REMARK   86  A    between atoms: _199  and  _202
REMARK   87  A    between atoms: _202  and  _203
REMARK   88  A    between atoms: _207  and  _208
REMARK   89  A    between atoms: _213  and  _215
REMARK   90  A    between atoms: _215  and  _216
REMARK   91  A    between atoms: _215  and  _218
REMARK   92  A    between atoms: _221  and  _223
REMARK   93  A    between atoms: _223  and  _224
REMARK   94  A    between atoms: _223  and  _226
REMARK   95  A    between atoms: _226  and  _227
REMARK   96  A    between atoms: _232  and  _234
REMARK   97  A    between atoms: _234  and  _235
REMARK   98  A    between atoms: _234  and  _237
REMARK   99  A    between atoms: _237  and  _238
REMARK  100  A    between atoms: _241  and  _243
REMARK  101  A    between atoms: _243  and  _244
REMARK  102  A    between atoms: _243  and  _246
REMARK  103  A    between atoms: _246  and  _247
REMARK  104  A    between atoms: _250  and  _252
REMARK  105  A    between atoms: _252  and  _253
REMARK  106  A    between atoms: _255  and  _257
REMARK  107  A    between atoms: _257  and  _258
REMARK  108  A    between atoms: _257  and  _260
REMARK  109  A    between atoms: _260  and  _261
REMARK  110  A    between atoms: _261  and  _262
REMARK  111  A    between atoms: _262  and  _263
REMARK  112  A    between atoms: _272  and  _274
REMARK  113  A    between atoms: _274  and  _275
REMARK  114  A    between atoms: _274  and  _277
REMARK  115  A    between atoms: _277  and  _278
REMARK  116  A    between atoms: _283  and  _285
REMARK  117  A    between atoms: _285  and  _286
REMARK  118  A    between atoms: _285  and  _288
REMARK  119  A    between atoms: _288  and  _289
REMARK  120  A    between atoms: _289  and  _290
REMARK  121  A    between atoms: _290  and  _291
REMARK  122  A    between atoms: _300  and  _302
REMARK  123  A    between atoms: _302  and  _303
REMARK  124  A    between atoms: _302  and  _305
REMARK  125  A    between atoms: _305  and  _306
REMARK  126  A    between atoms: _309  and  _311
REMARK  127  A    between atoms: _311  and  _312
REMARK  128  A    between atoms: _311  and  _314
REMARK  129  A    between atoms: _314  and  _315
REMARK  130  A    between atoms: _318  and  _320
REMARK  131  A    between atoms: _320  and  _321
REMARK  132  A    between atoms: _320  and  _323
REMARK  133  A    between atoms: _323  and  _324
REMARK  134  A    between atoms: _327  and  _329
REMARK  135  A    between atoms: _329  and  _330
REMARK  136  A    between atoms: _329  and  _332
REMARK  137  A    between atoms: _332  and  _333
REMARK  138  A    between atoms: _336  and  _338
REMARK  139  A    between atoms: _338  and  _339
REMARK  140  A    between atoms: _341  and  _343
REMARK  141  A    between atoms: _343  and  _344
REMARK  142  A    between atoms: _347  and  _349
REMARK  143  A    between atoms: _349  and  _350
REMARK  144  A    between atoms: _349  and  _352
REMARK  145  A    between atoms: _352  and  _353
REMARK  146  A    between atoms: _356  and  _358
REMARK  147  A    between atoms: _358  and  _359
REMARK  148  A    between atoms: _358  and  _361
REMARK  149  A    between atoms: _361  and  _362
REMARK  150  A    between atoms: _365  and  _367
REMARK  151  A    between atoms: _367  and  _368
REMARK  152  A    between atoms: _367  and  _370
REMARK  153  A    between atoms: _370  and  _371
REMARK  154  A    between atoms: _374  and  _376
REMARK  155  A    between atoms: _376  and  _377
REMARK  156  A    between atoms: _376  and  _379
REMARK  157  A    between atoms: _382  and  _384
REMARK  158  A    between atoms: _384  and  _385
REMARK  159  A    between atoms: _384  and  _387
REMARK  160  A    between atoms: _387  and  _388
REMARK  161  A    between atoms: _388  and  _389
REMARK  162  A    between atoms: _389  and  _390
REMARK  163  A    between atoms: _390  and  _391
REMARK  164  A    between atoms: _395  and  _397
REMARK  165  A    between atoms: _397  and  _398
REMARK  166  A    between atoms: _397  and  _400
REMARK  167  A    between atoms: _400  and  _401
REMARK  168  A    between atoms: _401  and  _402
REMARK  169  A    between atoms: _404  and  _406
REMARK  170  A    between atoms: _406  and  _407
REMARK  171  A    between atoms: _406  and  _409
REMARK  172  A    between atoms: _409  and  _410
REMARK  173  A    between atoms: _413  and  _415
REMARK  174  A    between atoms: _415  and  _416
REMARK  175  A    between atoms: _418  and  _420
REMARK  176  A    between atoms: _420  and  _421
REMARK  177  A    between atoms: _423  and  _425
REMARK  178  A    between atoms: _425  and  _426
REMARK  179  A    between atoms: _425  and  _428
REMARK  180  A    between atoms: _428  and  _429
REMARK  181  A    between atoms: _432  and  _434
REMARK  182  A    between atoms: _434  and  _435
REMARK  183  A    between atoms: _437  and  _439
REMARK  184  A    between atoms: _439  and  _440
REMARK  185  A    between atoms: _442  and  _444
REMARK  186  A    between atoms: _444  and  _445
REMARK  187  A    between atoms: _444  and  _447
REMARK  188  A    between atoms: _447  and  _448
REMARK  189  A    between atoms: _454  and  _456
REMARK  190  A    between atoms: _456  and  _457
REMARK  191  A    between atoms: _456  and  _459
REMARK  192  A    between atoms: _459  and  _460
REMARK  193  A    between atoms: _463  and  _465
REMARK  194  A    between atoms: _465  and  _466
REMARK  195  A    between atoms: _465  and  _468
REMARK  196  A    between atoms: _471  and  _473
REMARK  197  A    between atoms: _473  and  _474
REMARK  198  A    between atoms: _473  and  _476
REMARK  199  A    between atoms: _479  and  _481
REMARK  200  A    between atoms: _481  and  _482
REMARK  201  A    between atoms: _481  and  _484
REMARK  202  A    between atoms: _484  and  _485
REMARK  203  A    between atoms: _489  and  _490
REMARK  204  A    between atoms: _495  and  _497
REMARK  205  A    between atoms: _497  and  _498
REMARK  206  A    between atoms: _497  and  _500
REMARK  207  A    between atoms: _503  and  _505
REMARK  208  A    between atoms: _505  and  _506
REMARK  209  A    between atoms: _505  and  _508
REMARK  210  A    between atoms: _508  and  _509
REMARK  211  A    between atoms: _514  and  _516
REMARK  212  A    between atoms: _516  and  _517
REMARK  213  A    between atoms: _516  and  _519
REMARK  214  A    between atoms: _519  and  _520
REMARK  215  A    between atoms: _523  and  _525
REMARK  216  A    between atoms: _525  and  _526
REMARK  217  A    between atoms: _525  and  _528
REMARK  218  A    between atoms: _528  and  _529
REMARK  219  A    between atoms: _532  and  _534
REMARK  220  A    between atoms: _534  and  _535
REMARK  221  A    between atoms: _537  and  _539
REMARK  222  A    between atoms: _539  and  _540
REMARK  223  A    between atoms: _539  and  _542
REMARK  224  A    between atoms: _542  and  _543
REMARK  225  A    between atoms: _543  and  _544
REMARK  226  A    between atoms: _544  and  _545
REMARK  227  A    between atoms: _554  and  _556
REMARK  228  A    between atoms: _556  and  _557
REMARK  229  A    between atoms: _556  and  _559
REMARK  230  A    between atoms: _559  and  _560
REMARK                            x       y       z     vdW  Elec       q    Type
REMARK                         _______ _______ _______ _____ _____    ______ ____
ROOT
ATOM      1  O   HOH     1      22.845  28.320  20.970  0.00  0.00    +0.000 OA
ENDROOT
TORSDOF 0
REMARK  Name = ../refined-set-2016/3pwm/3pwm_pocket.pdb
REMARK  230 active torsions:
REMARK  status: ('A' for Active; 'I' for Inactive)
REMARK    1  A    between atoms: _1  and  _3
REMARK    2  A    between atoms: _3  and  _4
REMARK    3  A    between atoms: _3  and  _6
REMARK    4  A    between atoms: _6  and  _7
REMARK    5  A    between atoms: _7  and  _8
REMARK    6  A    between atoms: _8  and  _9
REMARK    7  A    between atoms: _18  and  _20
REMARK    8  A    between atoms: _20  and  _21
REMARK    9  A    between atoms: _20  and  _23
REMARK   10  A    between atoms: _23  and  _24
REMARK   11  A    between atoms: _27  and  _29
REMARK   12  A    between atoms: _29  and  _30
REMARK   13  A    between atoms: _29  and  _32
REMARK   14  A    between atoms: _32  and  _33
REMARK   15  A    between atoms: _36  and  _38
REMARK   16  A    between atoms: _38  and  _39
REMARK   17  A    between atoms: _38  and  _41
REMARK   18  A    between atoms: _41  and  _42
REMARK   19  A    between atoms: _45  and  _47
REMARK   20  A    between atoms: _47  and  _48
REMARK   21  A    between atoms: _47  and  _50
REMARK   22  A    between atoms: _50  and  _51
REMARK   23  A    between atoms: _54  and  _56
REMARK   24  A    between atoms: _56  and  _57
REMARK   25  A    between atoms: _59  and  _61
REMARK   26  A    between atoms: _61  and  _62
REMARK   27  A    between atoms: _65  and  _67
REMARK   28  A    between atoms: _67  and  _68
REMARK   29  A    between atoms: _67  and  _70
REMARK   30  A    between atoms: _70  and  _71
REMARK   31  A    between atoms: _74  and  _76
REMARK   32  A    between atoms: _76  and  _77
REMARK   33  A    between atoms: _76  and  _79
REMARK   34  A    between atoms: _79  and  _80
REMARK   35  A    between atoms: _83  and  _85
REMARK   36  A    between atoms: _85  and  _86
REMARK   37  A    between atoms: _85  and  _88
REMARK   38  A    between atoms: _88  and  _89
REMARK   39  A    between atoms: _92  and  _94
REMARK   40  A    between atoms: _94  and  _95
REMARK   41  A    between atoms: _94  and  _97
REMARK   42  A    between atoms: _100  and  _102
REMARK   43  A    between atoms: _102  and  _103
REMARK   44  A    between atoms: _102  and  _105
REMARK   45  A    between atoms: _105  and  _106
REMARK   46  A    between atoms: _106  and  _107
REMARK   47  A    between atoms: _107  and  _108
REMARK   48  A    between atoms: _108  and  _109
REMARK   49  A    between atoms: _113  and  _115
REMARK   50  A    between atoms: _115  and  _116
REMARK   51  A    between atoms: _115  and  _118
REMARK   52  A    between atoms: _118  and  _119
REMARK   53  A    between atoms: _119  and  _120
REMARK   54  A    between atoms: _122  and  _124
REMARK   55  A    between atoms: _124  and  _125
REMARK   56  A    between atoms: _124  and  _127
REMARK   57  A    between atoms: _127  and  _128
REMARK   58  A    between atoms: _131  and  _133
REMARK   59  A    between atoms: _133  and  _134
REMARK   60  A    between atoms: _136  and  _138
REMARK   61  A    between atoms: _138  and  _139
REMARK   62  A    between atoms: _141  and  _143
REMARK   63  A    between atoms: _143  and  _144
REMARK   64  A    between atoms: _143  and  _146
REMARK   65  A    between atoms: _146  and  _147
REMARK   66  A    between atoms: _150  and  _152
REMARK   67  A    between atoms: _152  and  _153
REMARK   68  A    between atoms: _155  and  _157
REMARK   69  A    between atoms: _157  and  _158
REMARK   70  A    between atoms: _160  and  _162
REMARK   71  A    between atoms: _162  and  _163
REMARK   72  A    between atoms: _162  and  _165
REMARK   73  A    between atoms: _165  and  _166
REMARK   74  A    between atoms: _172  and  _174
REMARK   75  A    between atoms: _174  and  _175
REMARK   76  A    between atoms: _174  and  _177
REMARK   77  A    between atoms: _177  and  _178
REMARK   78  A    between atoms: _181  and  _183
REMARK   79  A    between atoms: _183  and  _184
REMARK   80  A    between atoms: _183  and  _186
REMARK   81  A    between atoms: _189  and  _191
REMARK   82  A    between atoms: _191  and  _192
REMARK   83  A    between atoms: _191  and  _194
REMARK   84  A    between atoms: _197  and  _199
REMARK   85  A    between atoms: _199  and  _200
REMARK   86  A    between atoms: _199  and  _202
REMARK   87  A    between atoms: _202  and  _203
REMARK   88  A    between atoms: _207  and  _208
REMARK   89  A    between atoms: _213  and  _215
REMARK   90  A    between atoms: _215  and  _216
REMARK   91  A    between atoms: _215  and  _218
REMARK   92  A    between atoms: _221  and  _223
REMARK   93  A    between atoms: _223  and  _224
REMARK   94  A    between atoms: _223  and  _226
REMARK   95  A    between atoms: _226  and  _227
REMARK   96  A    between atoms: _232  and  _234
REMARK   97  A    between atoms: _234  and  _235
REMARK   98  A    between atoms: _234  and  _237
REMARK   99  A    between atoms: _237  and  _238
REMARK  100  A    between atoms: _241  and  _243
REMARK  101  A    between atoms: _243  and  _244
REMARK  102  A    between atoms: _243  and  _246
REMARK  103  A    between atoms: _246  and  _247
REMARK  104  A    between atoms: _250  and  _252
REMARK  105  A    between atoms: _252  and  _253
REMARK  106  A    between atoms: _255  and  _257
REMARK  107  A    between atoms: _257  and  _258
REMARK  108  A    between atoms: _257  and  _260
REMARK  109  A    between atoms: _260  and  _261
REMARK  110  A    between atoms: _261  and  _262
REMARK  111  A    between atoms: _262  and  _263
REMARK  112  A    between atoms: _272  and  _274
REMARK  113  A    between atoms: _274  and  _275
REMARK  114  A    between atoms: _274  and  _277
REMARK  115  A    between atoms: _277  and  _278
REMARK  116  A    between atoms: _283  and  _285
REMARK  117  A    between atoms: _285  and  _286
REMARK  118  A    between atoms: _285  and  _288
REMARK  119  A    between atoms: _288  and  _289
REMARK  120  A    between atoms: _289  and  _290
REMARK  121  A    between atoms: _290  and  _291
REMARK  122  A    between atoms: _300  and  _302
REMARK  123  A    between atoms: _302  and  _303
REMARK  124  A    between atoms: _302  and  _305
REMARK  125  A    between atoms: _305  and  _306
REMARK  126  A    between atoms: _309  and  _311
REMARK  127  A    between atoms: _311  and  _312
REMARK  128  A    between atoms: _311  and  _314
REMARK  129  A    between atoms: _314  and  _315
REMARK  130  A    between atoms: _318  and  _320
REMARK  131  A    between atoms: _320  and  _321
REMARK  132  A    between atoms: _320  and  _323
REMARK  133  A    between atoms: _323  and  _324
REMARK  134  A    between atoms: _327  and  _329
REMARK  135  A    between atoms: _329  and  _330
REMARK  136  A    between atoms: _329  and  _332
REMARK  137  A    between atoms: _332  and  _333
REMARK  138  A    between atoms: _336  and  _338
REMARK  139  A    between atoms: _338  and  _339
REMARK  140  A    between atoms: _341  and  _343
REMARK  141  A    between atoms: _343  and  _344
REMARK  142  A    between atoms: _347  and  _349
REMARK  143  A    between atoms: _349  and  _350
REMARK  144  A    between atoms: _349  and  _352
REMARK  145  A    between atoms: _352  and  _353
REMARK  146  A    between atoms: _356  and  _358
REMARK  147  A    between atoms: _358  and  _359
REMARK  148  A    between atoms: _358  and  _361
REMARK  149  A    between atoms: _361  and  _362
REMARK  150  A    between atoms: _365  and  _367
REMARK  151  A    between atoms: _367  and  _368
REMARK  152  A    between atoms: _367  and  _370
REMARK  153  A    between atoms: _370  and  _371
REMARK  154  A    between atoms: _374  and  _376
REMARK  155  A    between atoms: _376  and  _377
REMARK  156  A    between atoms: _376  and  _379
REMARK  157  A    between atoms: _382  and  _384
REMARK  158  A    between atoms: _384  and  _385
REMARK  159  A    between atoms: _384  and  _387
REMARK  160  A    between atoms: _387  and  _388
REMARK  161  A    between atoms: _388  and  _389
REMARK  162  A    between atoms: _389  and  _390
REMARK  163  A    between atoms: _390  and  _391
REMARK  164  A    between atoms: _395  and  _397
REMARK  165  A    between atoms: _397  and  _398
REMARK  166  A    between atoms: _397  and  _400
REMARK  167  A    between atoms: _400  and  _401
REMARK  168  A    between atoms: _401  and  _402
REMARK  169  A    between atoms: _404  and  _406
REMARK  170  A    between atoms: _406  and  _407
REMARK  171  A    between atoms: _406  and  _409
REMARK  172  A    between atoms: _409  and  _410
REMARK  173  A    between atoms: _413  and  _415
REMARK  174  A    between atoms: _415  and  _416
REMARK  175  A    between atoms: _418  and  _420
REMARK  176  A    between atoms: _420  and  _421
REMARK  177  A    between atoms: _423  and  _425
REMARK  178  A    between atoms: _425  and  _426
REMARK  179  A    between atoms: _425  and  _428
REMARK  180  A    between atoms: _428  and  _429
REMARK  181  A    between atoms: _432  and  _434
REMARK  182  A    between atoms: _434  and  _435
REMARK  183  A    between atoms: _437  and  _439
REMARK  184  A    between atoms: _439  and  _440
REMARK  185  A    between atoms: _442  and  _444
REMARK  186  A    between atoms: _444  and  _445
REMARK  187  A    between atoms: _444  and  _447
REMARK  188  A    between atoms: _447  and  _448
REMARK  189  A    between atoms: _454  and  _456
REMARK  190  A    between atoms: _456  and  _457
REMARK  191  A    between atoms: _456  and  _459
REMARK  192  A    between atoms: _459  and  _460
REMARK  193  A    between atoms: _463  and  _465
REMARK  194  A    between atoms: _465  and  _466
REMARK  195  A    between atoms: _465  and  _468
REMARK  196  A    between atoms: _471  and  _473
REMARK  197  A    between atoms: _473  and  _474
REMARK  198  A    between atoms: _473  and  _476
REMARK  199  A    between atoms: _479  and  _481
REMARK  200  A    between atoms: _481  and  _482
REMARK  201  A    between atoms: _481  and  _484
REMARK  202  A    between atoms: _484  and  _485
REMARK  203  A    between atoms: _489  and  _490
REMARK  204  A    between atoms: _495  and  _497
REMARK  205  A    between atoms: _497  and  _498
REMARK  206  A    between atoms: _497  and  _500
REMARK  207  A    between atoms: _503  and  _505
REMARK  208  A    between atoms: _505  and  _506
REMARK  209  A    between atoms: _505  and  _508
REMARK  210  A    between atoms: _508  and  _509
REMARK  211  A    between atoms: _514  and  _516
REMARK  212  A    between atoms: _516  and  _517
REMARK  213  A    between atoms: _516  and  _519
REMARK  214  A    between atoms: _519  and  _520
REMARK  215  A    between atoms: _523  and  _525
REMARK  216  A    between atoms: _525  and  _526
REMARK  217  A    between atoms: _525  and  _528
REMARK  218  A    between atoms: _528  and  _529
REMARK  219  A    between atoms: _532  and  _534
REMARK  220  A    between atoms: _534  and  _535
REMARK  221  A    between atoms: _537  and  _539
REMARK  222  A    between atoms: _539  and  _540
REMARK  223  A    between atoms: _539  and  _542
REMARK  224  A    between atoms: _542  and  _543
REMARK  225  A    between atoms: _543  and  _544
REMARK  226  A    between atoms: _544  and  _545
REMARK  227  A    between atoms: _554  and  _556
REMARK  228  A    between atoms: _556  and  _557
REMARK  229  A    between atoms: _556  and  _559
REMARK  230  A    between atoms: _559  and  _560
REMARK                            x       y       z     vdW  Elec       q    Type
REMARK                         _______ _______ _______ _____ _____    ______ ____
ROOT
ATOM      1  O   HOH     1       8.240  14.864  18.241  0.00  0.00    +0.000 OA
ENDROOT
TORSDOF 0
REMARK  Name = ../refined-set-2016/3pwm/3pwm_pocket.pdb
REMARK  230 active torsions:
REMARK  status: ('A' for Active; 'I' for Inactive)
REMARK    1  A    between atoms: _1  and  _3
REMARK    2  A    between atoms: _3  and  _4
REMARK    3  A    between atoms: _3  and  _6
REMARK    4  A    between atoms: _6  and  _7
REMARK    5  A    between atoms: _7  and  _8
REMARK    6  A    between atoms: _8  and  _9
REMARK    7  A    between atoms: _18  and  _20
REMARK    8  A    between atoms: _20  and  _21
REMARK    9  A    between atoms: _20  and  _23
REMARK   10  A    between atoms: _23  and  _24
REMARK   11  A    between atoms: _27  and  _29
REMARK   12  A    between atoms: _29  and  _30
REMARK   13  A    between atoms: _29  and  _32
REMARK   14  A    between atoms: _32  and  _33
REMARK   15  A    between atoms: _36  and  _38
REMARK   16  A    between atoms: _38  and  _39
REMARK   17  A    between atoms: _38  and  _41
REMARK   18  A    between atoms: _41  and  _42
REMARK   19  A    between atoms: _45  and  _47
REMARK   20  A    between atoms: _47  and  _48
REMARK   21  A    between atoms: _47  and  _50
REMARK   22  A    between atoms: _50  and  _51
REMARK   23  A    between atoms: _54  and  _56
REMARK   24  A    between atoms: _56  and  _57
REMARK   25  A    between atoms: _59  and  _61
REMARK   26  A    between atoms: _61  and  _62
REMARK   27  A    between atoms: _65  and  _67
REMARK   28  A    between atoms: _67  and  _68
REMARK   29  A    between atoms: _67  and  _70
REMARK   30  A    between atoms: _70  and  _71
REMARK   31  A    between atoms: _74  and  _76
REMARK   32  A    between atoms: _76  and  _77
REMARK   33  A    between atoms: _76  and  _79
REMARK   34  A    between atoms: _79  and  _80
REMARK   35  A    between atoms: _83  and  _85
REMARK   36  A    between atoms: _85  and  _86
REMARK   37  A    between atoms: _85  and  _88
REMARK   38  A    between atoms: _88  and  _89
REMARK   39  A    between atoms: _92  and  _94
REMARK   40  A    between atoms: _94  and  _95
REMARK   41  A    between atoms: _94  and  _97
REMARK   42  A    between atoms: _100  and  _102
REMARK   43  A    between atoms: _102  and  _103
REMARK   44  A    between atoms: _102  and  _105
REMARK   45  A    between atoms: _105  and  _106
REMARK   46  A    between atoms: _106  and  _107
REMARK   47  A    between atoms: _107  and  _108
REMARK   48  A    between atoms: _108  and  _109
REMARK   49  A    between atoms: _113  and  _115
REMARK   50  A    between atoms: _115  and  _116
REMARK   51  A    between atoms: _115  and  _118
REMARK   52  A    between atoms: _118  and  _119
REMARK   53  A    between atoms: _119  and  _120
REMARK   54  A    between atoms: _122  and  _124
REMARK   55  A    between atoms: _124  and  _125
REMARK   56  A    between atoms: _124  and  _127
REMARK   57  A    between atoms: _127  and  _128
REMARK   58  A    between atoms: _131  and  _133
REMARK   59  A    between atoms: _133  and  _134
REMARK   60  A    between atoms: _136  and  _138
REMARK   61  A    between atoms: _138  and  _139
REMARK   62  A    between atoms: _141  and  _143
REMARK   63  A    between atoms: _143  and  _144
REMARK   64  A    between atoms: _143  and  _146
REMARK   65  A    between atoms: _146  and  _147
REMARK   66  A    between atoms: _150  and  _152
REMARK   67  A    between atoms: _152  and  _153
REMARK   68  A    between atoms: _155  and  _157
REMARK   69  A    between atoms: _157  and  _158
REMARK   70  A    between atoms: _160  and  _162
REMARK   71  A    between atoms: _162  and  _163
REMARK   72  A    between atoms: _162  and  _165
REMARK   73  A    between atoms: _165  and  _166
REMARK   74  A    between atoms: _172  and  _174
REMARK   75  A    between atoms: _174  and  _175
REMARK   76  A    between atoms: _174  and  _177
REMARK   77  A    between atoms: _177  and  _178
REMARK   78  A    between atoms: _181  and  _183
REMARK   79  A    between atoms: _183  and  _184
REMARK   80  A    between atoms: _183  and  _186
REMARK   81  A    between atoms: _189  and  _191
REMARK   82  A    between atoms: _191  and  _192
REMARK   83  A    between atoms: _191  and  _194
REMARK   84  A    between atoms: _197  and  _199
REMARK   85  A    between atoms: _199  and  _200
REMARK   86  A    between atoms: _199  and  _202
REMARK   87  A    between atoms: _202  and  _203
REMARK   88  A    between atoms: _207  and  _208
REMARK   89  A    between atoms: _213  and  _215
REMARK   90  A    between atoms: _215  and  _216
REMARK   91  A    between atoms: _215  and  _218
REMARK   92  A    between atoms: _221  and  _223
REMARK   93  A    between atoms: _223  and  _224
REMARK   94  A    between atoms: _223  and  _226
REMARK   95  A    between atoms: _226  and  _227
REMARK   96  A    between atoms: _232  and  _234
REMARK   97  A    between atoms: _234  and  _235
REMARK   98  A    between atoms: _234  and  _237
REMARK   99  A    between atoms: _237  and  _238
REMARK  100  A    between atoms: _241  and  _243
REMARK  101  A    between atoms: _243  and  _244
REMARK  102  A    between atoms: _243  and  _246
REMARK  103  A    between atoms: _246  and  _247
REMARK  104  A    between atoms: _250  and  _252
REMARK  105  A    between atoms: _252  and  _253
REMARK  106  A    between atoms: _255  and  _257
REMARK  107  A    between atoms: _257  and  _258
REMARK  108  A    between atoms: _257  and  _260
REMARK  109  A    between atoms: _260  and  _261
REMARK  110  A    between atoms: _261  and  _262
REMARK  111  A    between atoms: _262  and  _263
REMARK  112  A    between atoms: _272  and  _274
REMARK  113  A    between atoms: _274  and  _275
REMARK  114  A    between atoms: _274  and  _277
REMARK  115  A    between atoms: _277  and  _278
REMARK  116  A    between atoms: _283  and  _285
REMARK  117  A    between atoms: _285  and  _286
REMARK  118  A    between atoms: _285  and  _288
REMARK  119  A    between atoms: _288  and  _289
REMARK  120  A    between atoms: _289  and  _290
REMARK  121  A    between atoms: _290  and  _291
REMARK  122  A    between atoms: _300  and  _302
REMARK  123  A    between atoms: _302  and  _303
REMARK  124  A    between atoms: _302  and  _305
REMARK  125  A    between atoms: _305  and  _306
REMARK  126  A    between atoms: _309  and  _311
REMARK  127  A    between atoms: _311  and  _312
REMARK  128  A    between atoms: _311  and  _314
REMARK  129  A    between atoms: _314  and  _315
REMARK  130  A    between atoms: _318  and  _320
REMARK  131  A    between atoms: _320  and  _321
REMARK  132  A    between atoms: _320  and  _323
REMARK  133  A    between atoms: _323  and  _324
REMARK  134  A    between atoms: _327  and  _329
REMARK  135  A    between atoms: _329  and  _330
REMARK  136  A    between atoms: _329  and  _332
REMARK  137  A    between atoms: _332  and  _333
REMARK  138  A    between atoms: _336  and  _338
REMARK  139  A    between atoms: _338  and  _339
REMARK  140  A    between atoms: _341  and  _343
REMARK  141  A    between atoms: _343  and  _344
REMARK  142  A    between atoms: _347  and  _349
REMARK  143  A    between atoms: _349  and  _350
REMARK  144  A    between atoms: _349  and  _352
REMARK  145  A    between atoms: _352  and  _353
REMARK  146  A    between atoms: _356  and  _358
REMARK  147  A    between atoms: _358  and  _359
REMARK  148  A    between atoms: _358  and  _361
REMARK  149  A    between atoms: _361  and  _362
REMARK  150  A    between atoms: _365  and  _367
REMARK  151  A    between atoms: _367  and  _368
REMARK  152  A    between atoms: _367  and  _370
REMARK  153  A    between atoms: _370  and  _371
REMARK  154  A    between atoms: _374  and  _376
REMARK  155  A    between atoms: _376  and  _377
REMARK  156  A    between atoms: _376  and  _379
REMARK  157  A    between atoms: _382  and  _384
REMARK  158  A    between atoms: _384  and  _385
REMARK  159  A    between atoms: _384  and  _387
REMARK  160  A    between atoms: _387  and  _388
REMARK  161  A    between atoms: _388  and  _389
REMARK  162  A    between atoms: _389  and  _390
REMARK  163  A    between atoms: _390  and  _391
REMARK  164  A    between atoms: _395  and  _397
REMARK  165  A    between atoms: _397  and  _398
REMARK  166  A    between atoms: _397  and  _400
REMARK  167  A    between atoms: _400  and  _401
REMARK  168  A    between atoms: _401  and  _402
REMARK  169  A    between atoms: _404  and  _406
REMARK  170  A    between atoms: _406  and  _407
REMARK  171  A    between atoms: _406  and  _409
REMARK  172  A    between atoms: _409  and  _410
REMARK  173  A    between atoms: _413  and  _415
REMARK  174  A    between atoms: _415  and  _416
REMARK  175  A    between atoms: _418  and  _420
REMARK  176  A    between atoms: _420  and  _421
REMARK  177  A    between atoms: _423  and  _425
REMARK  178  A    between atoms: _425  and  _426
REMARK  179  A    between atoms: _425  and  _428
REMARK  180  A    between atoms: _428  and  _429
REMARK  181  A    between atoms: _432  and  _434
REMARK  182  A    between atoms: _434  and  _435
REMARK  183  A    between atoms: _437  and  _439
REMARK  184  A    between atoms: _439  and  _440
REMARK  185  A    between atoms: _442  and  _444
REMARK  186  A    between atoms: _444  and  _445
REMARK  187  A    between atoms: _444  and  _447
REMARK  188  A    between atoms: _447  and  _448
REMARK  189  A    between atoms: _454  and  _456
REMARK  190  A    between atoms: _456  and  _457
REMARK  191  A    between atoms: _456  and  _459
REMARK  192  A    between atoms: _459  and  _460
REMARK  193  A    between atoms: _463  and  _465
REMARK  194  A    between atoms: _465  and  _466
REMARK  195  A    between atoms: _465  and  _468
REMARK  196  A    between atoms: _471  and  _473
REMARK  197  A    between atoms: _473  and  _474
REMARK  198  A    between atoms: _473  and  _476
REMARK  199  A    between atoms: _479  and  _481
REMARK  200  A    between atoms: _481  and  _482
REMARK  201  A    between atoms: _481  and  _484
REMARK  202  A    between atoms: _484  and  _485
REMARK  203  A    between atoms: _489  and  _490
REMARK  204  A    between atoms: _495  and  _497
REMARK  205  A    between atoms: _497  and  _498
REMARK  206  A    between atoms: _497  and  _500
REMARK  207  A    between atoms: _503  and  _505
REMARK  208  A    between atoms: _505  and  _506
REMARK  209  A    between atoms: _505  and  _508
REMARK  210  A    between atoms: _508  and  _509
REMARK  211  A    between atoms: _514  and  _516
REMARK  212  A    between atoms: _516  and  _517
REMARK  213  A    between atoms: _516  and  _519
REMARK  214  A    between atoms: _519  and  _520
REMARK  215  A    between atoms: _523  and  _525
REMARK  216  A    between atoms: _525  and  _526
REMARK  217  A    between atoms: _525  and  _528
REMARK  218  A    between atoms: _528  and  _529
REMARK  219  A    between atoms: _532  and  _534
REMARK  220  A    between atoms: _534  and  _535
REMARK  221  A    between atoms: _537  and  _539
REMARK  222  A    between atoms: _539  and  _540
REMARK  223  A    between atoms: _539  and  _542
REMARK  224  A    between atoms: _542  and  _543
REMARK  225  A    between atoms: _543  and  _544
REMARK  226  A    between atoms: _544  and  _545
REMARK  227  A    between atoms: _554  and  _556
REMARK  228  A    between atoms: _556  and  _557
REMARK  229  A    between atoms: _556  and  _559
REMARK  230  A    between atoms: _559  and  _560
REMARK                            x       y       z     vdW  Elec       q    Type
REMARK                         _______ _______ _______ _____ _____    ______ ____
ROOT
ATOM      1  O   HOH     1      19.933  28.096  18.953  0.00  0.00    +0.000 OA
ENDROOT
TORSDOF 0
REMARK  Name = ../refined-set-2016/3pwm/3pwm_pocket.pdb
REMARK  230 active torsions:
REMARK  status: ('A' for Active; 'I' for Inactive)
REMARK    1  A    between atoms: _1  and  _3
REMARK    2  A    between atoms: _3  and  _4
REMARK    3  A    between atoms: _3  and  _6
REMARK    4  A    between atoms: _6  and  _7
REMARK    5  A    between atoms: _7  and  _8
REMARK    6  A    between atoms: _8  and  _9
REMARK    7  A    between atoms: _18  and  _20
REMARK    8  A    between atoms: _20  and  _21
REMARK    9  A    between atoms: _20  and  _23
REMARK   10  A    between atoms: _23  and  _24
REMARK   11  A    between atoms: _27  and  _29
REMARK   12  A    between atoms: _29  and  _30
REMARK   13  A    between atoms: _29  and  _32
REMARK   14  A    between atoms: _32  and  _33
REMARK   15  A    between atoms: _36  and  _38
REMARK   16  A    between atoms: _38  and  _39
REMARK   17  A    between atoms: _38  and  _41
REMARK   18  A    between atoms: _41  and  _42
REMARK   19  A    between atoms: _45  and  _47
REMARK   20  A    between atoms: _47  and  _48
REMARK   21  A    between atoms: _47  and  _50
REMARK   22  A    between atoms: _50  and  _51
REMARK   23  A    between atoms: _54  and  _56
REMARK   24  A    between atoms: _56  and  _57
REMARK   25  A    between atoms: _59  and  _61
REMARK   26  A    between atoms: _61  and  _62
REMARK   27  A    between atoms: _65  and  _67
REMARK   28  A    between atoms: _67  and  _68
REMARK   29  A    between atoms: _67  and  _70
REMARK   30  A    between atoms: _70  and  _71
REMARK   31  A    between atoms: _74  and  _76
REMARK   32  A    between atoms: _76  and  _77
REMARK   33  A    between atoms: _76  and  _79
REMARK   34  A    between atoms: _79  and  _80
REMARK   35  A    between atoms: _83  and  _85
REMARK   36  A    between atoms: _85  and  _86
REMARK   37  A    between atoms: _85  and  _88
REMARK   38  A    between atoms: _88  and  _89
REMARK   39  A    between atoms: _92  and  _94
REMARK   40  A    between atoms: _94  and  _95
REMARK   41  A    between atoms: _94  and  _97
REMARK   42  A    between atoms: _100  and  _102
REMARK   43  A    between atoms: _102  and  _103
REMARK   44  A    between atoms: _102  and  _105
REMARK   45  A    between atoms: _105  and  _106
REMARK   46  A    between atoms: _106  and  _107
REMARK   47  A    between atoms: _107  and  _108
REMARK   48  A    between atoms: _108  and  _109
REMARK   49  A    between atoms: _113  and  _115
REMARK   50  A    between atoms: _115  and  _116
REMARK   51  A    between atoms: _115  and  _118
REMARK   52  A    between atoms: _118  and  _119
REMARK   53  A    between atoms: _119  and  _120
REMARK   54  A    between atoms: _122  and  _124
REMARK   55  A    between atoms: _124  and  _125
REMARK   56  A    between atoms: _124  and  _127
REMARK   57  A    between atoms: _127  and  _128
REMARK   58  A    between atoms: _131  and  _133
REMARK   59  A    between atoms: _133  and  _134
REMARK   60  A    between atoms: _136  and  _138
REMARK   61  A    between atoms: _138  and  _139
REMARK   62  A    between atoms: _141  and  _143
REMARK   63  A    between atoms: _143  and  _144
REMARK   64  A    between atoms: _143  and  _146
REMARK   65  A    between atoms: _146  and  _147
REMARK   66  A    between atoms: _150  and  _152
REMARK   67  A    between atoms: _152  and  _153
REMARK   68  A    between atoms: _155  and  _157
REMARK   69  A    between atoms: _157  and  _158
REMARK   70  A    between atoms: _160  and  _162
REMARK   71  A    between atoms: _162  and  _163
REMARK   72  A    between atoms: _162  and  _165
REMARK   73  A    between atoms: _165  and  _166
REMARK   74  A    between atoms: _172  and  _174
REMARK   75  A    between atoms: _174  and  _175
REMARK   76  A    between atoms: _174  and  _177
REMARK   77  A    between atoms: _177  and  _178
REMARK   78  A    between atoms: _181  and  _183
REMARK   79  A    between atoms: _183  and  _184
REMARK   80  A    between atoms: _183  and  _186
REMARK   81  A    between atoms: _189  and  _191
REMARK   82  A    between atoms: _191  and  _192
REMARK   83  A    between atoms: _191  and  _194
REMARK   84  A    between atoms: _197  and  _199
REMARK   85  A    between atoms: _199  and  _200
REMARK   86  A    between atoms: _199  and  _202
REMARK   87  A    between atoms: _202  and  _203
REMARK   88  A    between atoms: _207  and  _208
REMARK   89  A    between atoms: _213  and  _215
REMARK   90  A    between atoms: _215  and  _216
REMARK   91  A    between atoms: _215  and  _218
REMARK   92  A    between atoms: _221  and  _223
REMARK   93  A    between atoms: _223  and  _224
REMARK   94  A    between atoms: _223  and  _226
REMARK   95  A    between atoms: _226  and  _227
REMARK   96  A    between atoms: _232  and  _234
REMARK   97  A    between atoms: _234  and  _235
REMARK   98  A    between atoms: _234  and  _237
REMARK   99  A    between atoms: _237  and  _238
REMARK  100  A    between atoms: _241  and  _243
REMARK  101  A    between atoms: _243  and  _244
REMARK  102  A    between atoms: _243  and  _246
REMARK  103  A    between atoms: _246  and  _247
REMARK  104  A    between atoms: _250  and  _252
REMARK  105  A    between atoms: _252  and  _253
REMARK  106  A    between atoms: _255  and  _257
REMARK  107  A    between atoms: _257  and  _258
REMARK  108  A    between atoms: _257  and  _260
REMARK  109  A    between atoms: _260  and  _261
REMARK  110  A    between atoms: _261  and  _262
REMARK  111  A    between atoms: _262  and  _263
REMARK  112  A    between atoms: _272  and  _274
REMARK  113  A    between atoms: _274  and  _275
REMARK  114  A    between atoms: _274  and  _277
REMARK  115  A    between atoms: _277  and  _278
REMARK  116  A    between atoms: _283  and  _285
REMARK  117  A    between atoms: _285  and  _286
REMARK  118  A    between atoms: _285  and  _288
REMARK  119  A    between atoms: _288  and  _289
REMARK  120  A    between atoms: _289  and  _290
REMARK  121  A    between atoms: _290  and  _291
REMARK  122  A    between atoms: _300  and  _302
REMARK  123  A    between atoms: _302  and  _303
REMARK  124  A    between atoms: _302  and  _305
REMARK  125  A    between atoms: _305  and  _306
REMARK  126  A    between atoms: _309  and  _311
REMARK  127  A    between atoms: _311  and  _312
REMARK  128  A    between atoms: _311  and  _314
REMARK  129  A    between atoms: _314  and  _315
REMARK  130  A    between atoms: _318  and  _320
REMARK  131  A    between atoms: _320  and  _321
REMARK  132  A    between atoms: _320  and  _323
REMARK  133  A    between atoms: _323  and  _324
REMARK  134  A    between atoms: _327  and  _329
REMARK  135  A    between atoms: _329  and  _330
REMARK  136  A    between atoms: _329  and  _332
REMARK  137  A    between atoms: _332  and  _333
REMARK  138  A    between atoms: _336  and  _338
REMARK  139  A    between atoms: _338  and  _339
REMARK  140  A    between atoms: _341  and  _343
REMARK  141  A    between atoms: _343  and  _344
REMARK  142  A    between atoms: _347  and  _349
REMARK  143  A    between atoms: _349  and  _350
REMARK  144  A    between atoms: _349  and  _352
REMARK  145  A    between atoms: _352  and  _353
REMARK  146  A    between atoms: _356  and  _358
REMARK  147  A    between atoms: _358  and  _359
REMARK  148  A    between atoms: _358  and  _361
REMARK  149  A    between atoms: _361  and  _362
REMARK  150  A    between atoms: _365  and  _367
REMARK  151  A    between atoms: _367  and  _368
REMARK  152  A    between atoms: _367  and  _370
REMARK  153  A    between atoms: _370  and  _371
REMARK  154  A    between atoms: _374  and  _376
REMARK  155  A    between atoms: _376  and  _377
REMARK  156  A    between atoms: _376  and  _379
REMARK  157  A    between atoms: _382  and  _384
REMARK  158  A    between atoms: _384  and  _385
REMARK  159  A    between atoms: _384  and  _387
REMARK  160  A    between atoms: _387  and  _388
REMARK  161  A    between atoms: _388  and  _389
REMARK  162  A    between atoms: _389  and  _390
REMARK  163  A    between atoms: _390  and  _391
REMARK  164  A    between atoms: _395  and  _397
REMARK  165  A    between atoms: _397  and  _398
REMARK  166  A    between atoms: _397  and  _400
REMARK  167  A    between atoms: _400  and  _401
REMARK  168  A    between atoms: _401  and  _402
REMARK  169  A    between atoms: _404  and  _406
REMARK  170  A    between atoms: _406  and  _407
REMARK  171  A    between atoms: _406  and  _409
REMARK  172  A    between atoms: _409  and  _410
REMARK  173  A    between atoms: _413  and  _415
REMARK  174  A    between atoms: _415  and  _416
REMARK  175  A    between atoms: _418  and  _420
REMARK  176  A    between atoms: _420  and  _421
REMARK  177  A    between atoms: _423  and  _425
REMARK  178  A    between atoms: _425  and  _426
REMARK  179  A    between atoms: _425  and  _428
REMARK  180  A    between atoms: _428  and  _429
REMARK  181  A    between atoms: _432  and  _434
REMARK  182  A    between atoms: _434  and  _435
REMARK  183  A    between atoms: _437  and  _439
REMARK  184  A    between atoms: _439  and  _440
REMARK  185  A    between atoms: _442  and  _444
REMARK  186  A    between atoms: _444  and  _445
REMARK  187  A    between atoms: _444  and  _447
REMARK  188  A    between atoms: _447  and  _448
REMARK  189  A    between atoms: _454  and  _456
REMARK  190  A    between atoms: _456  and  _457
REMARK  191  A    between atoms: _456  and  _459
REMARK  192  A    between atoms: _459  and  _460
REMARK  193  A    between atoms: _463  and  _465
REMARK  194  A    between atoms: _465  and  _466
REMARK  195  A    between atoms: _465  and  _468
REMARK  196  A    between atoms: _471  and  _473
REMARK  197  A    between atoms: _473  and  _474
REMARK  198  A    between atoms: _473  and  _476
REMARK  199  A    between atoms: _479  and  _481
REMARK  200  A    between atoms: _481  and  _482
REMARK  201  A    between atoms: _481  and  _484
REMARK  202  A    between atoms: _484  and  _485
REMARK  203  A    between atoms: _489  and  _490
REMARK  204  A    between atoms: _495  and  _497
REMARK  205  A    between atoms: _497  and  _498
REMARK  206  A    between atoms: _497  and  _500
REMARK  207  A    between atoms: _503  and  _505
REMARK  208  A    between atoms: _505  and  _506
REMARK  209  A    between atoms: _505  and  _508
REMARK  210  A    between atoms: _508  and  _509
REMARK  211  A    between atoms: _514  and  _516
REMARK  212  A    between atoms: _516  and  _517
REMARK  213  A    between atoms: _516  and  _519
REMARK  214  A    between atoms: _519  and  _520
REMARK  215  A    between atoms: _523  and  _525
REMARK  216  A    between atoms: _525  and  _526
REMARK  217  A    between atoms: _525  and  _528
REMARK  218  A    between atoms: _528  and  _529
REMARK  219  A    between atoms: _532  and  _534
REMARK  220  A    between atoms: _534  and  _535
REMARK  221  A    between atoms: _537  and  _539
REMARK  222  A    between atoms: _539  and  _540
REMARK  223  A    between atoms: _539  and  _542
REMARK  224  A    between atoms: _542  and  _543
REMARK  225  A    between atoms: _543  and  _544
REMARK  226  A    between atoms: _544  and  _545
REMARK  227  A    between atoms: _554  and  _556
REMARK  228  A    between atoms: _556  and  _557
REMARK  229  A    between atoms: _556  and  _559
REMARK  230  A    between atoms: _559  and  _560
REMARK                            x       y       z     vdW  Elec       q    Type
REMARK                         _______ _______ _______ _____ _____    ______ ____
ROOT
ATOM      1  O   HOH     1      17.916  26.290  13.863  0.00  0.00    +0.000 OA
ENDROOT
TORSDOF 0
REMARK  Name = ../refined-set-2016/3pwm/3pwm_pocket.pdb
REMARK  230 active torsions:
REMARK  status: ('A' for Active; 'I' for Inactive)
REMARK    1  A    between atoms: _1  and  _3
REMARK    2  A    between atoms: _3  and  _4
REMARK    3  A    between atoms: _3  and  _6
REMARK    4  A    between atoms: _6  and  _7
REMARK    5  A    between atoms: _7  and  _8
REMARK    6  A    between atoms: _8  and  _9
REMARK    7  A    between atoms: _18  and  _20
REMARK    8  A    between atoms: _20  and  _21
REMARK    9  A    between atoms: _20  and  _23
REMARK   10  A    between atoms: _23  and  _24
REMARK   11  A    between atoms: _27  and  _29
REMARK   12  A    between atoms: _29  and  _30
REMARK   13  A    between atoms: _29  and  _32
REMARK   14  A    between atoms: _32  and  _33
REMARK   15  A    between atoms: _36  and  _38
REMARK   16  A    between atoms: _38  and  _39
REMARK   17  A    between atoms: _38  and  _41
REMARK   18  A    between atoms: _41  and  _42
REMARK   19  A    between atoms: _45  and  _47
REMARK   20  A    between atoms: _47  and  _48
REMARK   21  A    between atoms: _47  and  _50
REMARK   22  A    between atoms: _50  and  _51
REMARK   23  A    between atoms: _54  and  _56
REMARK   24  A    between atoms: _56  and  _57
REMARK   25  A    between atoms: _59  and  _61
REMARK   26  A    between atoms: _61  and  _62
REMARK   27  A    between atoms: _65  and  _67
REMARK   28  A    between atoms: _67  and  _68
REMARK   29  A    between atoms: _67  and  _70
REMARK   30  A    between atoms: _70  and  _71
REMARK   31  A    between atoms: _74  and  _76
REMARK   32  A    between atoms: _76  and  _77
REMARK   33  A    between atoms: _76  and  _79
REMARK   34  A    between atoms: _79  and  _80
REMARK   35  A    between atoms: _83  and  _85
REMARK   36  A    between atoms: _85  and  _86
REMARK   37  A    between atoms: _85  and  _88
REMARK   38  A    between atoms: _88  and  _89
REMARK   39  A    between atoms: _92  and  _94
REMARK   40  A    between atoms: _94  and  _95
REMARK   41  A    between atoms: _94  and  _97
REMARK   42  A    between atoms: _100  and  _102
REMARK   43  A    between atoms: _102  and  _103
REMARK   44  A    between atoms: _102  and  _105
REMARK   45  A    between atoms: _105  and  _106
REMARK   46  A    between atoms: _106  and  _107
REMARK   47  A    between atoms: _107  and  _108
REMARK   48  A    between atoms: _108  and  _109
REMARK   49  A    between atoms: _113  and  _115
REMARK   50  A    between atoms: _115  and  _116
REMARK   51  A    between atoms: _115  and  _118
REMARK   52  A    between atoms: _118  and  _119
REMARK   53  A    between atoms: _119  and  _120
REMARK   54  A    between atoms: _122  and  _124
REMARK   55  A    between atoms: _124  and  _125
REMARK   56  A    between atoms: _124  and  _127
REMARK   57  A    between atoms: _127  and  _128
REMARK   58  A    between atoms: _131  and  _133
REMARK   59  A    between atoms: _133  and  _134
REMARK   60  A    between atoms: _136  and  _138
REMARK   61  A    between atoms: _138  and  _139
REMARK   62  A    between atoms: _141  and  _143
REMARK   63  A    between atoms: _143  and  _144
REMARK   64  A    between atoms: _143  and  _146
REMARK   65  A    between atoms: _146  and  _147
REMARK   66  A    between atoms: _150  and  _152
REMARK   67  A    between atoms: _152  and  _153
REMARK   68  A    between atoms: _155  and  _157
REMARK   69  A    between atoms: _157  and  _158
REMARK   70  A    between atoms: _160  and  _162
REMARK   71  A    between atoms: _162  and  _163
REMARK   72  A    between atoms: _162  and  _165
REMARK   73  A    between atoms: _165  and  _166
REMARK   74  A    between atoms: _172  and  _174
REMARK   75  A    between atoms: _174  and  _175
REMARK   76  A    between atoms: _174  and  _177
REMARK   77  A    between atoms: _177  and  _178
REMARK   78  A    between atoms: _181  and  _183
REMARK   79  A    between atoms: _183  and  _184
REMARK   80  A    between atoms: _183  and  _186
REMARK   81  A    between atoms: _189  and  _191
REMARK   82  A    between atoms: _191  and  _192
REMARK   83  A    between atoms: _191  and  _194
REMARK   84  A    between atoms: _197  and  _199
REMARK   85  A    between atoms: _199  and  _200
REMARK   86  A    between atoms: _199  and  _202
REMARK   87  A    between atoms: _202  and  _203
REMARK   88  A    between atoms: _207  and  _208
REMARK   89  A    between atoms: _213  and  _215
REMARK   90  A    between atoms: _215  and  _216
REMARK   91  A    between atoms: _215  and  _218
REMARK   92  A    between atoms: _221  and  _223
REMARK   93  A    between atoms: _223  and  _224
REMARK   94  A    between atoms: _223  and  _226
REMARK   95  A    between atoms: _226  and  _227
REMARK   96  A    between atoms: _232  and  _234
REMARK   97  A    between atoms: _234  and  _235
REMARK   98  A    between atoms: _234  and  _237
REMARK   99  A    between atoms: _237  and  _238
REMARK  100  A    between atoms: _241  and  _243
REMARK  101  A    between atoms: _243  and  _244
REMARK  102  A    between atoms: _243  and  _246
REMARK  103  A    between atoms: _246  and  _247
REMARK  104  A    between atoms: _250  and  _252
REMARK  105  A    between atoms: _252  and  _253
REMARK  106  A    between atoms: _255  and  _257
REMARK  107  A    between atoms: _257  and  _258
REMARK  108  A    between atoms: _257  and  _260
REMARK  109  A    between atoms: _260  and  _261
REMARK  110  A    between atoms: _261  and  _262
REMARK  111  A    between atoms: _262  and  _263
REMARK  112  A    between atoms: _272  and  _274
REMARK  113  A    between atoms: _274  and  _275
REMARK  114  A    between atoms: _274  and  _277
REMARK  115  A    between atoms: _277  and  _278
REMARK  116  A    between atoms: _283  and  _285
REMARK  117  A    between atoms: _285  and  _286
REMARK  118  A    between atoms: _285  and  _288
REMARK  119  A    between atoms: _288  and  _289
REMARK  120  A    between atoms: _289  and  _290
REMARK  121  A    between atoms: _290  and  _291
REMARK  122  A    between atoms: _300  and  _302
REMARK  123  A    between atoms: _302  and  _303
REMARK  124  A    between atoms: _302  and  _305
REMARK  125  A    between atoms: _305  and  _306
REMARK  126  A    between atoms: _309  and  _311
REMARK  127  A    between atoms: _311  and  _312
REMARK  128  A    between atoms: _311  and  _314
REMARK  129  A    between atoms: _314  and  _315
REMARK  130  A    between atoms: _318  and  _320
REMARK  131  A    between atoms: _320  and  _321
REMARK  132  A    between atoms: _320  and  _323
REMARK  133  A    between atoms: _323  and  _324
REMARK  134  A    between atoms: _327  and  _329
REMARK  135  A    between atoms: _329  and  _330
REMARK  136  A    between atoms: _329  and  _332
REMARK  137  A    between atoms: _332  and  _333
REMARK  138  A    between atoms: _336  and  _338
REMARK  139  A    between atoms: _338  and  _339
REMARK  140  A    between atoms: _341  and  _343
REMARK  141  A    between atoms: _343  and  _344
REMARK  142  A    between atoms: _347  and  _349
REMARK  143  A    between atoms: _349  and  _350
REMARK  144  A    between atoms: _349  and  _352
REMARK  145  A    between atoms: _352  and  _353
REMARK  146  A    between atoms: _356  and  _358
REMARK  147  A    between atoms: _358  and  _359
REMARK  148  A    between atoms: _358  and  _361
REMARK  149  A    between atoms: _361  and  _362
REMARK  150  A    between atoms: _365  and  _367
REMARK  151  A    between atoms: _367  and  _368
REMARK  152  A    between atoms: _367  and  _370
REMARK  153  A    between atoms: _370  and  _371
REMARK  154  A    between atoms: _374  and  _376
REMARK  155  A    between atoms: _376  and  _377
REMARK  156  A    between atoms: _376  and  _379
REMARK  157  A    between atoms: _382  and  _384
REMARK  158  A    between atoms: _384  and  _385
REMARK  159  A    between atoms: _384  and  _387
REMARK  160  A    between atoms: _387  and  _388
REMARK  161  A    between atoms: _388  and  _389
REMARK  162  A    between atoms: _389  and  _390
REMARK  163  A    between atoms: _390  and  _391
REMARK  164  A    between atoms: _395  and  _397
REMARK  165  A    between atoms: _397  and  _398
REMARK  166  A    between atoms: _397  and  _400
REMARK  167  A    between atoms: _400  and  _401
REMARK  168  A    between atoms: _401  and  _402
REMARK  169  A    between atoms: _404  and  _406
REMARK  170  A    between atoms: _406  and  _407
REMARK  171  A    between atoms: _406  and  _409
REMARK  172  A    between atoms: _409  and  _410
REMARK  173  A    between atoms: _413  and  _415
REMARK  174  A    between atoms: _415  and  _416
REMARK  175  A    between atoms: _418  and  _420
REMARK  176  A    between atoms: _420  and  _421
REMARK  177  A    between atoms: _423  and  _425
REMARK  178  A    between atoms: _425  and  _426
REMARK  179  A    between atoms: _425  and  _428
REMARK  180  A    between atoms: _428  and  _429
REMARK  181  A    between atoms: _432  and  _434
REMARK  182  A    between atoms: _434  and  _435
REMARK  183  A    between atoms: _437  and  _439
REMARK  184  A    between atoms: _439  and  _440
REMARK  185  A    between atoms: _442  and  _444
REMARK  186  A    between atoms: _444  and  _445
REMARK  187  A    between atoms: _444  and  _447
REMARK  188  A    between atoms: _447  and  _448
REMARK  189  A    between atoms: _454  and  _456
REMARK  190  A    between atoms: _456  and  _457
REMARK  191  A    between atoms: _456  and  _459
REMARK  192  A    between atoms: _459  and  _460
REMARK  193  A    between atoms: _463  and  _465
REMARK  194  A    between atoms: _465  and  _466
REMARK  195  A    between atoms: _465  and  _468
REMARK  196  A    between atoms: _471  and  _473
REMARK  197  A    between atoms: _473  and  _474
REMARK  198  A    between atoms: _473  and  _476
REMARK  199  A    between atoms: _479  and  _481
REMARK  200  A    between atoms: _481  and  _482
REMARK  201  A    between atoms: _481  and  _484
REMARK  202  A    between atoms: _484  and  _485
REMARK  203  A    between atoms: _489  and  _490
REMARK  204  A    between atoms: _495  and  _497
REMARK  205  A    between atoms: _497  and  _498
REMARK  206  A    between atoms: _497  and  _500
REMARK  207  A    between atoms: _503  and  _505
REMARK  208  A    between atoms: _505  and  _506
REMARK  209  A    between atoms: _505  and  _508
REMARK  210  A    between atoms: _508  and  _509
REMARK  211  A    between atoms: _514  and  _516
REMARK  212  A    between atoms: _516  and  _517
REMARK  213  A    between atoms: _516  and  _519
REMARK  214  A    between atoms: _519  and  _520
REMARK  215  A    between atoms: _523  and  _525
REMARK  216  A    between atoms: _525  and  _526
REMARK  217  A    between atoms: _525  and  _528
REMARK  218  A    between atoms: _528  and  _529
REMARK  219  A    between atoms: _532  and  _534
REMARK  220  A    between atoms: _534  and  _535
REMARK  221  A    between atoms: _537  and  _539
REMARK  222  A    between atoms: _539  and  _540
REMARK  223  A    between atoms: _539  and  _542
REMARK  224  A    between atoms: _542  and  _543
REMARK  225  A    between atoms: _543  and  _544
REMARK  226  A    between atoms: _544  and  _545
REMARK  227  A    between atoms: _554  and  _556
REMARK  228  A    between atoms: _556  and  _557
REMARK  229  A    between atoms: _556  and  _559
REMARK  230  A    between atoms: _559  and  _560
REMARK                            x       y       z     vdW  Elec       q    Type
REMARK                         _______ _______ _______ _____ _____    ______ ____
ROOT
ATOM      1  O   HOH     1      22.229  27.275  18.315  0.00  0.00    +0.000 OA
ENDROOT
TORSDOF 0
REMARK  Name = ../refined-set-2016/3pwm/3pwm_pocket.pdb
REMARK  230 active torsions:
REMARK  status: ('A' for Active; 'I' for Inactive)
REMARK    1  A    between atoms: _1  and  _3
REMARK    2  A    between atoms: _3  and  _4
REMARK    3  A    between atoms: _3  and  _6
REMARK    4  A    between atoms: _6  and  _7
REMARK    5  A    between atoms: _7  and  _8
REMARK    6  A    between atoms: _8  and  _9
REMARK    7  A    between atoms: _18  and  _20
REMARK    8  A    between atoms: _20  and  _21
REMARK    9  A    between atoms: _20  and  _23
REMARK   10  A    between atoms: _23  and  _24
REMARK   11  A    between atoms: _27  and  _29
REMARK   12  A    between atoms: _29  and  _30
REMARK   13  A    between atoms: _29  and  _32
REMARK   14  A    between atoms: _32  and  _33
REMARK   15  A    between atoms: _36  and  _38
REMARK   16  A    between atoms: _38  and  _39
REMARK   17  A    between atoms: _38  and  _41
REMARK   18  A    between atoms: _41  and  _42
REMARK   19  A    between atoms: _45  and  _47
REMARK   20  A    between atoms: _47  and  _48
REMARK   21  A    between atoms: _47  and  _50
REMARK   22  A    between atoms: _50  and  _51
REMARK   23  A    between atoms: _54  and  _56
REMARK   24  A    between atoms: _56  and  _57
REMARK   25  A    between atoms: _59  and  _61
REMARK   26  A    between atoms: _61  and  _62
REMARK   27  A    between atoms: _65  and  _67
REMARK   28  A    between atoms: _67  and  _68
REMARK   29  A    between atoms: _67  and  _70
REMARK   30  A    between atoms: _70  and  _71
REMARK   31  A    between atoms: _74  and  _76
REMARK   32  A    between atoms: _76  and  _77
REMARK   33  A    between atoms: _76  and  _79
REMARK   34  A    between atoms: _79  and  _80
REMARK   35  A    between atoms: _83  and  _85
REMARK   36  A    between atoms: _85  and  _86
REMARK   37  A    between atoms: _85  and  _88
REMARK   38  A    between atoms: _88  and  _89
REMARK   39  A    between atoms: _92  and  _94
REMARK   40  A    between atoms: _94  and  _95
REMARK   41  A    between atoms: _94  and  _97
REMARK   42  A    between atoms: _100  and  _102
REMARK   43  A    between atoms: _102  and  _103
REMARK   44  A    between atoms: _102  and  _105
REMARK   45  A    between atoms: _105  and  _106
REMARK   46  A    between atoms: _106  and  _107
REMARK   47  A    between atoms: _107  and  _108
REMARK   48  A    between atoms: _108  and  _109
REMARK   49  A    between atoms: _113  and  _115
REMARK   50  A    between atoms: _115  and  _116
REMARK   51  A    between atoms: _115  and  _118
REMARK   52  A    between atoms: _118  and  _119
REMARK   53  A    between atoms: _119  and  _120
REMARK   54  A    between atoms: _122  and  _124
REMARK   55  A    between atoms: _124  and  _125
REMARK   56  A    between atoms: _124  and  _127
REMARK   57  A    between atoms: _127  and  _128
REMARK   58  A    between atoms: _131  and  _133
REMARK   59  A    between atoms: _133  and  _134
REMARK   60  A    between atoms: _136  and  _138
REMARK   61  A    between atoms: _138  and  _139
REMARK   62  A    between atoms: _141  and  _143
REMARK   63  A    between atoms: _143  and  _144
REMARK   64  A    between atoms: _143  and  _146
REMARK   65  A    between atoms: _146  and  _147
REMARK   66  A    between atoms: _150  and  _152
REMARK   67  A    between atoms: _152  and  _153
REMARK   68  A    between atoms: _155  and  _157
REMARK   69  A    between atoms: _157  and  _158
REMARK   70  A    between atoms: _160  and  _162
REMARK   71  A    between atoms: _162  and  _163
REMARK   72  A    between atoms: _162  and  _165
REMARK   73  A    between atoms: _165  and  _166
REMARK   74  A    between atoms: _172  and  _174
REMARK   75  A    between atoms: _174  and  _175
REMARK   76  A    between atoms: _174  and  _177
REMARK   77  A    between atoms: _177  and  _178
REMARK   78  A    between atoms: _181  and  _183
REMARK   79  A    between atoms: _183  and  _184
REMARK   80  A    between atoms: _183  and  _186
REMARK   81  A    between atoms: _189  and  _191
REMARK   82  A    between atoms: _191  and  _192
REMARK   83  A    between atoms: _191  and  _194
REMARK   84  A    between atoms: _197  and  _199
REMARK   85  A    between atoms: _199  and  _200
REMARK   86  A    between atoms: _199  and  _202
REMARK   87  A    between atoms: _202  and  _203
REMARK   88  A    between atoms: _207  and  _208
REMARK   89  A    between atoms: _213  and  _215
REMARK   90  A    between atoms: _215  and  _216
REMARK   91  A    between atoms: _215  and  _218
REMARK   92  A    between atoms: _221  and  _223
REMARK   93  A    between atoms: _223  and  _224
REMARK   94  A    between atoms: _223  and  _226
REMARK   95  A    between atoms: _226  and  _227
REMARK   96  A    between atoms: _232  and  _234
REMARK   97  A    between atoms: _234  and  _235
REMARK   98  A    between atoms: _234  and  _237
REMARK   99  A    between atoms: _237  and  _238
REMARK  100  A    between atoms: _241  and  _243
REMARK  101  A    between atoms: _243  and  _244
REMARK  102  A    between atoms: _243  and  _246
REMARK  103  A    between atoms: _246  and  _247
REMARK  104  A    between atoms: _250  and  _252
REMARK  105  A    between atoms: _252  and  _253
REMARK  106  A    between atoms: _255  and  _257
REMARK  107  A    between atoms: _257  and  _258
REMARK  108  A    between atoms: _257  and  _260
REMARK  109  A    between atoms: _260  and  _261
REMARK  110  A    between atoms: _261  and  _262
REMARK  111  A    between atoms: _262  and  _263
REMARK  112  A    between atoms: _272  and  _274
REMARK  113  A    between atoms: _274  and  _275
REMARK  114  A    between atoms: _274  and  _277
REMARK  115  A    between atoms: _277  and  _278
REMARK  116  A    between atoms: _283  and  _285
REMARK  117  A    between atoms: _285  and  _286
REMARK  118  A    between atoms: _285  and  _288
REMARK  119  A    between atoms: _288  and  _289
REMARK  120  A    between atoms: _289  and  _290
REMARK  121  A    between atoms: _290  and  _291
REMARK  122  A    between atoms: _300  and  _302
REMARK  123  A    between atoms: _302  and  _303
REMARK  124  A    between atoms: _302  and  _305
REMARK  125  A    between atoms: _305  and  _306
REMARK  126  A    between atoms: _309  and  _311
REMARK  127  A    between atoms: _311  and  _312
REMARK  128  A    between atoms: _311  and  _314
REMARK  129  A    between atoms: _314  and  _315
REMARK  130  A    between atoms: _318  and  _320
REMARK  131  A    between atoms: _320  and  _321
REMARK  132  A    between atoms: _320  and  _323
REMARK  133  A    between atoms: _323  and  _324
REMARK  134  A    between atoms: _327  and  _329
REMARK  135  A    between atoms: _329  and  _330
REMARK  136  A    between atoms: _329  and  _332
REMARK  137  A    between atoms: _332  and  _333
REMARK  138  A    between atoms: _336  and  _338
REMARK  139  A    between atoms: _338  and  _339
REMARK  140  A    between atoms: _341  and  _343
REMARK  141  A    between atoms: _343  and  _344
REMARK  142  A    between atoms: _347  and  _349
REMARK  143  A    between atoms: _349  and  _350
REMARK  144  A    between atoms: _349  and  _352
REMARK  145  A    between atoms: _352  and  _353
REMARK  146  A    between atoms: _356  and  _358
REMARK  147  A    between atoms: _358  and  _359
REMARK  148  A    between atoms: _358  and  _361
REMARK  149  A    between atoms: _361  and  _362
REMARK  150  A    between atoms: _365  and  _367
REMARK  151  A    between atoms: _367  and  _368
REMARK  152  A    between atoms: _367  and  _370
REMARK  153  A    between atoms: _370  and  _371
REMARK  154  A    between atoms: _374  and  _376
REMARK  155  A    between atoms: _376  and  _377
REMARK  156  A    between atoms: _376  and  _379
REMARK  157  A    between atoms: _382  and  _384
REMARK  158  A    between atoms: _384  and  _385
REMARK  159  A    between atoms: _384  and  _387
REMARK  160  A    between atoms: _387  and  _388
REMARK  161  A    between atoms: _388  and  _389
REMARK  162  A    between atoms: _389  and  _390
REMARK  163  A    between atoms: _390  and  _391
REMARK  164  A    between atoms: _395  and  _397
REMARK  165  A    between atoms: _397  and  _398
REMARK  166  A    between atoms: _397  and  _400
REMARK  167  A    between atoms: _400  and  _401
REMARK  168  A    between atoms: _401  and  _402
REMARK  169  A    between atoms: _404  and  _406
REMARK  170  A    between atoms: _406  and  _407
REMARK  171  A    between atoms: _406  and  _409
REMARK  172  A    between atoms: _409  and  _410
REMARK  173  A    between atoms: _413  and  _415
REMARK  174  A    between atoms: _415  and  _416
REMARK  175  A    between atoms: _418  and  _420
REMARK  176  A    between atoms: _420  and  _421
REMARK  177  A    between atoms: _423  and  _425
REMARK  178  A    between atoms: _425  and  _426
REMARK  179  A    between atoms: _425  and  _428
REMARK  180  A    between atoms: _428  and  _429
REMARK  181  A    between atoms: _432  and  _434
REMARK  182  A    between atoms: _434  and  _435
REMARK  183  A    between atoms: _437  and  _439
REMARK  184  A    between atoms: _439  and  _440
REMARK  185  A    between atoms: _442  and  _444
REMARK  186  A    between atoms: _444  and  _445
REMARK  187  A    between atoms: _444  and  _447
REMARK  188  A    between atoms: _447  and  _448
REMARK  189  A    between atoms: _454  and  _456
REMARK  190  A    between atoms: _456  and  _457
REMARK  191  A    between atoms: _456  and  _459
REMARK  192  A    between atoms: _459  and  _460
REMARK  193  A    between atoms: _463  and  _465
REMARK  194  A    between atoms: _465  and  _466
REMARK  195  A    between atoms: _465  and  _468
REMARK  196  A    between atoms: _471  and  _473
REMARK  197  A    between atoms: _473  and  _474
REMARK  198  A    between atoms: _473  and  _476
REMARK  199  A    between atoms: _479  and  _481
REMARK  200  A    between atoms: _481  and  _482
REMARK  201  A    between atoms: _481  and  _484
REMARK  202  A    between atoms: _484  and  _485
REMARK  203  A    between atoms: _489  and  _490
REMARK  204  A    between atoms: _495  and  _497
REMARK  205  A    between atoms: _497  and  _498
REMARK  206  A    between atoms: _497  and  _500
REMARK  207  A    between atoms: _503  and  _505
REMARK  208  A    between atoms: _505  and  _506
REMARK  209  A    between atoms: _505  and  _508
REMARK  210  A    between atoms: _508  and  _509
REMARK  211  A    between atoms: _514  and  _516
REMARK  212  A    between atoms: _516  and  _517
REMARK  213  A    between atoms: _516  and  _519
REMARK  214  A    between atoms: _519  and  _520
REMARK  215  A    between atoms: _523  and  _525
REMARK  216  A    between atoms: _525  and  _526
REMARK  217  A    between atoms: _525  and  _528
REMARK  218  A    between atoms: _528  and  _529
REMARK  219  A    between atoms: _532  and  _534
REMARK  220  A    between atoms: _534  and  _535
REMARK  221  A    between atoms: _537  and  _539
REMARK  222  A    between atoms: _539  and  _540
REMARK  223  A    between atoms: _539  and  _542
REMARK  224  A    between atoms: _542  and  _543
REMARK  225  A    between atoms: _543  and  _544
REMARK  226  A    between atoms: _544  and  _545
REMARK  227  A    between atoms: _554  and  _556
REMARK  228  A    between atoms: _556  and  _557
REMARK  229  A    between atoms: _556  and  _559
REMARK  230  A    between atoms: _559  and  _560
REMARK                            x       y       z     vdW  Elec       q    Type
REMARK                         _______ _______ _______ _____ _____    ______ ____
ROOT
ATOM      1  O   HOH     1      21.904  27.296  25.074  0.00  0.00    +0.000 OA
ENDROOT
TORSDOF 0
REMARK  Name = ../refined-set-2016/3pwm/3pwm_pocket.pdb
REMARK  230 active torsions:
REMARK  status: ('A' for Active; 'I' for Inactive)
REMARK    1  A    between atoms: _1  and  _3
REMARK    2  A    between atoms: _3  and  _4
REMARK    3  A    between atoms: _3  and  _6
REMARK    4  A    between atoms: _6  and  _7
REMARK    5  A    between atoms: _7  and  _8
REMARK    6  A    between atoms: _8  and  _9
REMARK    7  A    between atoms: _18  and  _20
REMARK    8  A    between atoms: _20  and  _21
REMARK    9  A    between atoms: _20  and  _23
REMARK   10  A    between atoms: _23  and  _24
REMARK   11  A    between atoms: _27  and  _29
REMARK   12  A    between atoms: _29  and  _30
REMARK   13  A    between atoms: _29  and  _32
REMARK   14  A    between atoms: _32  and  _33
REMARK   15  A    between atoms: _36  and  _38
REMARK   16  A    between atoms: _38  and  _39
REMARK   17  A    between atoms: _38  and  _41
REMARK   18  A    between atoms: _41  and  _42
REMARK   19  A    between atoms: _45  and  _47
REMARK   20  A    between atoms: _47  and  _48
REMARK   21  A    between atoms: _47  and  _50
REMARK   22  A    between atoms: _50  and  _51
REMARK   23  A    between atoms: _54  and  _56
REMARK   24  A    between atoms: _56  and  _57
REMARK   25  A    between atoms: _59  and  _61
REMARK   26  A    between atoms: _61  and  _62
REMARK   27  A    between atoms: _65  and  _67
REMARK   28  A    between atoms: _67  and  _68
REMARK   29  A    between atoms: _67  and  _70
REMARK   30  A    between atoms: _70  and  _71
REMARK   31  A    between atoms: _74  and  _76
REMARK   32  A    between atoms: _76  and  _77
REMARK   33  A    between atoms: _76  and  _79
REMARK   34  A    between atoms: _79  and  _80
REMARK   35  A    between atoms: _83  and  _85
REMARK   36  A    between atoms: _85  and  _86
REMARK   37  A    between atoms: _85  and  _88
REMARK   38  A    between atoms: _88  and  _89
REMARK   39  A    between atoms: _92  and  _94
REMARK   40  A    between atoms: _94  and  _95
REMARK   41  A    between atoms: _94  and  _97
REMARK   42  A    between atoms: _100  and  _102
REMARK   43  A    between atoms: _102  and  _103
REMARK   44  A    between atoms: _102  and  _105
REMARK   45  A    between atoms: _105  and  _106
REMARK   46  A    between atoms: _106  and  _107
REMARK   47  A    between atoms: _107  and  _108
REMARK   48  A    between atoms: _108  and  _109
REMARK   49  A    between atoms: _113  and  _115
REMARK   50  A    between atoms: _115  and  _116
REMARK   51  A    between atoms: _115  and  _118
REMARK   52  A    between atoms: _118  and  _119
REMARK   53  A    between atoms: _119  and  _120
REMARK   54  A    between atoms: _122  and  _124
REMARK   55  A    between atoms: _124  and  _125
REMARK   56  A    between atoms: _124  and  _127
REMARK   57  A    between atoms: _127  and  _128
REMARK   58  A    between atoms: _131  and  _133
REMARK   59  A    between atoms: _133  and  _134
REMARK   60  A    between atoms: _136  and  _138
REMARK   61  A    between atoms: _138  and  _139
REMARK   62  A    between atoms: _141  and  _143
REMARK   63  A    between atoms: _143  and  _144
REMARK   64  A    between atoms: _143  and  _146
REMARK   65  A    between atoms: _146  and  _147
REMARK   66  A    between atoms: _150  and  _152
REMARK   67  A    between atoms: _152  and  _153
REMARK   68  A    between atoms: _155  and  _157
REMARK   69  A    between atoms: _157  and  _158
REMARK   70  A    between atoms: _160  and  _162
REMARK   71  A    between atoms: _162  and  _163
REMARK   72  A    between atoms: _162  and  _165
REMARK   73  A    between atoms: _165  and  _166
REMARK   74  A    between atoms: _172  and  _174
REMARK   75  A    between atoms: _174  and  _175
REMARK   76  A    between atoms: _174  and  _177
REMARK   77  A    between atoms: _177  and  _178
REMARK   78  A    between atoms: _181  and  _183
REMARK   79  A    between atoms: _183  and  _184
REMARK   80  A    between atoms: _183  and  _186
REMARK   81  A    between atoms: _189  and  _191
REMARK   82  A    between atoms: _191  and  _192
REMARK   83  A    between atoms: _191  and  _194
REMARK   84  A    between atoms: _197  and  _199
REMARK   85  A    between atoms: _199  and  _200
REMARK   86  A    between atoms: _199  and  _202
REMARK   87  A    between atoms: _202  and  _203
REMARK   88  A    between atoms: _207  and  _208
REMARK   89  A    between atoms: _213  and  _215
REMARK   90  A    between atoms: _215  and  _216
REMARK   91  A    between atoms: _215  and  _218
REMARK   92  A    between atoms: _221  and  _223
REMARK   93  A    between atoms: _223  and  _224
REMARK   94  A    between atoms: _223  and  _226
REMARK   95  A    between atoms: _226  and  _227
REMARK   96  A    between atoms: _232  and  _234
REMARK   97  A    between atoms: _234  and  _235
REMARK   98  A    between atoms: _234  and  _237
REMARK   99  A    between atoms: _237  and  _238
REMARK  100  A    between atoms: _241  and  _243
REMARK  101  A    between atoms: _243  and  _244
REMARK  102  A    between atoms: _243  and  _246
REMARK  103  A    between atoms: _246  and  _247
REMARK  104  A    between atoms: _250  and  _252
REMARK  105  A    between atoms: _252  and  _253
REMARK  106  A    between atoms: _255  and  _257
REMARK  107  A    between atoms: _257  and  _258
REMARK  108  A    between atoms: _257  and  _260
REMARK  109  A    between atoms: _260  and  _261
REMARK  110  A    between atoms: _261  and  _262
REMARK  111  A    between atoms: _262  and  _263
REMARK  112  A    between atoms: _272  and  _274
REMARK  113  A    between atoms: _274  and  _275
REMARK  114  A    between atoms: _274  and  _277
REMARK  115  A    between atoms: _277  and  _278
REMARK  116  A    between atoms: _283  and  _285
REMARK  117  A    between atoms: _285  and  _286
REMARK  118  A    between atoms: _285  and  _288
REMARK  119  A    between atoms: _288  and  _289
REMARK  120  A    between atoms: _289  and  _290
REMARK  121  A    between atoms: _290  and  _291
REMARK  122  A    between atoms: _300  and  _302
REMARK  123  A    between atoms: _302  and  _303
REMARK  124  A    between atoms: _302  and  _305
REMARK  125  A    between atoms: _305  and  _306
REMARK  126  A    between atoms: _309  and  _311
REMARK  127  A    between atoms: _311  and  _312
REMARK  128  A    between atoms: _311  and  _314
REMARK  129  A    between atoms: _314  and  _315
REMARK  130  A    between atoms: _318  and  _320
REMARK  131  A    between atoms: _320  and  _321
REMARK  132  A    between atoms: _320  and  _323
REMARK  133  A    between atoms: _323  and  _324
REMARK  134  A    between atoms: _327  and  _329
REMARK  135  A    between atoms: _329  and  _330
REMARK  136  A    between atoms: _329  and  _332
REMARK  137  A    between atoms: _332  and  _333
REMARK  138  A    between atoms: _336  and  _338
REMARK  139  A    between atoms: _338  and  _339
REMARK  140  A    between atoms: _341  and  _343
REMARK  141  A    between atoms: _343  and  _344
REMARK  142  A    between atoms: _347  and  _349
REMARK  143  A    between atoms: _349  and  _350
REMARK  144  A    between atoms: _349  and  _352
REMARK  145  A    between atoms: _352  and  _353
REMARK  146  A    between atoms: _356  and  _358
REMARK  147  A    between atoms: _358  and  _359
REMARK  148  A    between atoms: _358  and  _361
REMARK  149  A    between atoms: _361  and  _362
REMARK  150  A    between atoms: _365  and  _367
REMARK  151  A    between atoms: _367  and  _368
REMARK  152  A    between atoms: _367  and  _370
REMARK  153  A    between atoms: _370  and  _371
REMARK  154  A    between atoms: _374  and  _376
REMARK  155  A    between atoms: _376  and  _377
REMARK  156  A    between atoms: _376  and  _379
REMARK  157  A    between atoms: _382  and  _384
REMARK  158  A    between atoms: _384  and  _385
REMARK  159  A    between atoms: _384  and  _387
REMARK  160  A    between atoms: _387  and  _388
REMARK  161  A    between atoms: _388  and  _389
REMARK  162  A    between atoms: _389  and  _390
REMARK  163  A    between atoms: _390  and  _391
REMARK  164  A    between atoms: _395  and  _397
REMARK  165  A    between atoms: _397  and  _398
REMARK  166  A    between atoms: _397  and  _400
REMARK  167  A    between atoms: _400  and  _401
REMARK  168  A    between atoms: _401  and  _402
REMARK  169  A    between atoms: _404  and  _406
REMARK  170  A    between atoms: _406  and  _407
REMARK  171  A    between atoms: _406  and  _409
REMARK  172  A    between atoms: _409  and  _410
REMARK  173  A    between atoms: _413  and  _415
REMARK  174  A    between atoms: _415  and  _416
REMARK  175  A    between atoms: _418  and  _420
REMARK  176  A    between atoms: _420  and  _421
REMARK  177  A    between atoms: _423  and  _425
REMARK  178  A    between atoms: _425  and  _426
REMARK  179  A    between atoms: _425  and  _428
REMARK  180  A    between atoms: _428  and  _429
REMARK  181  A    between atoms: _432  and  _434
REMARK  182  A    between atoms: _434  and  _435
REMARK  183  A    between atoms: _437  and  _439
REMARK  184  A    between atoms: _439  and  _440
REMARK  185  A    between atoms: _442  and  _444
REMARK  186  A    between atoms: _444  and  _445
REMARK  187  A    between atoms: _444  and  _447
REMARK  188  A    between atoms: _447  and  _448
REMARK  189  A    between atoms: _454  and  _456
REMARK  190  A    between atoms: _456  and  _457
REMARK  191  A    between atoms: _456  and  _459
REMARK  192  A    between atoms: _459  and  _460
REMARK  193  A    between atoms: _463  and  _465
REMARK  194  A    between atoms: _465  and  _466
REMARK  195  A    between atoms: _465  and  _468
REMARK  196  A    between atoms: _471  and  _473
REMARK  197  A    between atoms: _473  and  _474
REMARK  198  A    between atoms: _473  and  _476
REMARK  199  A    between atoms: _479  and  _481
REMARK  200  A    between atoms: _481  and  _482
REMARK  201  A    between atoms: _481  and  _484
REMARK  202  A    between atoms: _484  and  _485
REMARK  203  A    between atoms: _489  and  _490
REMARK  204  A    between atoms: _495  and  _497
REMARK  205  A    between atoms: _497  and  _498
REMARK  206  A    between atoms: _497  and  _500
REMARK  207  A    between atoms: _503  and  _505
REMARK  208  A    between atoms: _505  and  _506
REMARK  209  A    between atoms: _505  and  _508
REMARK  210  A    between atoms: _508  and  _509
REMARK  211  A    between atoms: _514  and  _516
REMARK  212  A    between atoms: _516  and  _517
REMARK  213  A    between atoms: _516  and  _519
REMARK  214  A    between atoms: _519  and  _520
REMARK  215  A    between atoms: _523  and  _525
REMARK  216  A    between atoms: _525  and  _526
REMARK  217  A    between atoms: _525  and  _528
REMARK  218  A    between atoms: _528  and  _529
REMARK  219  A    between atoms: _532  and  _534
REMARK  220  A    between atoms: _534  and  _535
REMARK  221  A    between atoms: _537  and  _539
REMARK  222  A    between atoms: _539  and  _540
REMARK  223  A    between atoms: _539  and  _542
REMARK  224  A    between atoms: _542  and  _543
REMARK  225  A    between atoms: _543  and  _544
REMARK  226  A    between atoms: _544  and  _545
REMARK  227  A    between atoms: _554  and  _556
REMARK  228  A    between atoms: _556  and  _557
REMARK  229  A    between atoms: _556  and  _559
REMARK  230  A    between atoms: _559  and  _560
REMARK                            x       y       z     vdW  Elec       q    Type
REMARK                         _______ _______ _______ _____ _____    ______ ____
ROOT
ATOM      1  O   HOH     1      12.061  28.144   9.638  0.00  0.00    +0.000 OA
ENDROOT
TORSDOF 0
REMARK  Name = ../refined-set-2016/3pwm/3pwm_pocket.pdb
REMARK  230 active torsions:
REMARK  status: ('A' for Active; 'I' for Inactive)
REMARK    1  A    between atoms: _1  and  _3
REMARK    2  A    between atoms: _3  and  _4
REMARK    3  A    between atoms: _3  and  _6
REMARK    4  A    between atoms: _6  and  _7
REMARK    5  A    between atoms: _7  and  _8
REMARK    6  A    between atoms: _8  and  _9
REMARK    7  A    between atoms: _18  and  _20
REMARK    8  A    between atoms: _20  and  _21
REMARK    9  A    between atoms: _20  and  _23
REMARK   10  A    between atoms: _23  and  _24
REMARK   11  A    between atoms: _27  and  _29
REMARK   12  A    between atoms: _29  and  _30
REMARK   13  A    between atoms: _29  and  _32
REMARK   14  A    between atoms: _32  and  _33
REMARK   15  A    between atoms: _36  and  _38
REMARK   16  A    between atoms: _38  and  _39
REMARK   17  A    between atoms: _38  and  _41
REMARK   18  A    between atoms: _41  and  _42
REMARK   19  A    between atoms: _45  and  _47
REMARK   20  A    between atoms: _47  and  _48
REMARK   21  A    between atoms: _47  and  _50
REMARK   22  A    between atoms: _50  and  _51
REMARK   23  A    between atoms: _54  and  _56
REMARK   24  A    between atoms: _56  and  _57
REMARK   25  A    between atoms: _59  and  _61
REMARK   26  A    between atoms: _61  and  _62
REMARK   27  A    between atoms: _65  and  _67
REMARK   28  A    between atoms: _67  and  _68
REMARK   29  A    between atoms: _67  and  _70
REMARK   30  A    between atoms: _70  and  _71
REMARK   31  A    between atoms: _74  and  _76
REMARK   32  A    between atoms: _76  and  _77
REMARK   33  A    between atoms: _76  and  _79
REMARK   34  A    between atoms: _79  and  _80
REMARK   35  A    between atoms: _83  and  _85
REMARK   36  A    between atoms: _85  and  _86
REMARK   37  A    between atoms: _85  and  _88
REMARK   38  A    between atoms: _88  and  _89
REMARK   39  A    between atoms: _92  and  _94
REMARK   40  A    between atoms: _94  and  _95
REMARK   41  A    between atoms: _94  and  _97
REMARK   42  A    between atoms: _100  and  _102
REMARK   43  A    between atoms: _102  and  _103
REMARK   44  A    between atoms: _102  and  _105
REMARK   45  A    between atoms: _105  and  _106
REMARK   46  A    between atoms: _106  and  _107
REMARK   47  A    between atoms: _107  and  _108
REMARK   48  A    between atoms: _108  and  _109
REMARK   49  A    between atoms: _113  and  _115
REMARK   50  A    between atoms: _115  and  _116
REMARK   51  A    between atoms: _115  and  _118
REMARK   52  A    between atoms: _118  and  _119
REMARK   53  A    between atoms: _119  and  _120
REMARK   54  A    between atoms: _122  and  _124
REMARK   55  A    between atoms: _124  and  _125
REMARK   56  A    between atoms: _124  and  _127
REMARK   57  A    between atoms: _127  and  _128
REMARK   58  A    between atoms: _131  and  _133
REMARK   59  A    between atoms: _133  and  _134
REMARK   60  A    between atoms: _136  and  _138
REMARK   61  A    between atoms: _138  and  _139
REMARK   62  A    between atoms: _141  and  _143
REMARK   63  A    between atoms: _143  and  _144
REMARK   64  A    between atoms: _143  and  _146
REMARK   65  A    between atoms: _146  and  _147
REMARK   66  A    between atoms: _150  and  _152
REMARK   67  A    between atoms: _152  and  _153
REMARK   68  A    between atoms: _155  and  _157
REMARK   69  A    between atoms: _157  and  _158
REMARK   70  A    between atoms: _160  and  _162
REMARK   71  A    between atoms: _162  and  _163
REMARK   72  A    between atoms: _162  and  _165
REMARK   73  A    between atoms: _165  and  _166
REMARK   74  A    between atoms: _172  and  _174
REMARK   75  A    between atoms: _174  and  _175
REMARK   76  A    between atoms: _174  and  _177
REMARK   77  A    between atoms: _177  and  _178
REMARK   78  A    between atoms: _181  and  _183
REMARK   79  A    between atoms: _183  and  _184
REMARK   80  A    between atoms: _183  and  _186
REMARK   81  A    between atoms: _189  and  _191
REMARK   82  A    between atoms: _191  and  _192
REMARK   83  A    between atoms: _191  and  _194
REMARK   84  A    between atoms: _197  and  _199
REMARK   85  A    between atoms: _199  and  _200
REMARK   86  A    between atoms: _199  and  _202
REMARK   87  A    between atoms: _202  and  _203
REMARK   88  A    between atoms: _207  and  _208
REMARK   89  A    between atoms: _213  and  _215
REMARK   90  A    between atoms: _215  and  _216
REMARK   91  A    between atoms: _215  and  _218
REMARK   92  A    between atoms: _221  and  _223
REMARK   93  A    between atoms: _223  and  _224
REMARK   94  A    between atoms: _223  and  _226
REMARK   95  A    between atoms: _226  and  _227
REMARK   96  A    between atoms: _232  and  _234
REMARK   97  A    between atoms: _234  and  _235
REMARK   98  A    between atoms: _234  and  _237
REMARK   99  A    between atoms: _237  and  _238
REMARK  100  A    between atoms: _241  and  _243
REMARK  101  A    between atoms: _243  and  _244
REMARK  102  A    between atoms: _243  and  _246
REMARK  103  A    between atoms: _246  and  _247
REMARK  104  A    between atoms: _250  and  _252
REMARK  105  A    between atoms: _252  and  _253
REMARK  106  A    between atoms: _255  and  _257
REMARK  107  A    between atoms: _257  and  _258
REMARK  108  A    between atoms: _257  and  _260
REMARK  109  A    between atoms: _260  and  _261
REMARK  110  A    between atoms: _261  and  _262
REMARK  111  A    between atoms: _262  and  _263
REMARK  112  A    between atoms: _272  and  _274
REMARK  113  A    between atoms: _274  and  _275
REMARK  114  A    between atoms: _274  and  _277
REMARK  115  A    between atoms: _277  and  _278
REMARK  116  A    between atoms: _283  and  _285
REMARK  117  A    between atoms: _285  and  _286
REMARK  118  A    between atoms: _285  and  _288
REMARK  119  A    between atoms: _288  and  _289
REMARK  120  A    between atoms: _289  and  _290
REMARK  121  A    between atoms: _290  and  _291
REMARK  122  A    between atoms: _300  and  _302
REMARK  123  A    between atoms: _302  and  _303
REMARK  124  A    between atoms: _302  and  _305
REMARK  125  A    between atoms: _305  and  _306
REMARK  126  A    between atoms: _309  and  _311
REMARK  127  A    between atoms: _311  and  _312
REMARK  128  A    between atoms: _311  and  _314
REMARK  129  A    between atoms: _314  and  _315
REMARK  130  A    between atoms: _318  and  _320
REMARK  131  A    between atoms: _320  and  _321
REMARK  132  A    between atoms: _320  and  _323
REMARK  133  A    between atoms: _323  and  _324
REMARK  134  A    between atoms: _327  and  _329
REMARK  135  A    between atoms: _329  and  _330
REMARK  136  A    between atoms: _329  and  _332
REMARK  137  A    between atoms: _332  and  _333
REMARK  138  A    between atoms: _336  and  _338
REMARK  139  A    between atoms: _338  and  _339
REMARK  140  A    between atoms: _341  and  _343
REMARK  141  A    between atoms: _343  and  _344
REMARK  142  A    between atoms: _347  and  _349
REMARK  143  A    between atoms: _349  and  _350
REMARK  144  A    between atoms: _349  and  _352
REMARK  145  A    between atoms: _352  and  _353
REMARK  146  A    between atoms: _356  and  _358
REMARK  147  A    between atoms: _358  and  _359
REMARK  148  A    between atoms: _358  and  _361
REMARK  149  A    between atoms: _361  and  _362
REMARK  150  A    between atoms: _365  and  _367
REMARK  151  A    between atoms: _367  and  _368
REMARK  152  A    between atoms: _367  and  _370
REMARK  153  A    between atoms: _370  and  _371
REMARK  154  A    between atoms: _374  and  _376
REMARK  155  A    between atoms: _376  and  _377
REMARK  156  A    between atoms: _376  and  _379
REMARK  157  A    between atoms: _382  and  _384
REMARK  158  A    between atoms: _384  and  _385
REMARK  159  A    between atoms: _384  and  _387
REMARK  160  A    between atoms: _387  and  _388
REMARK  161  A    between atoms: _388  and  _389
REMARK  162  A    between atoms: _389  and  _390
REMARK  163  A    between atoms: _390  and  _391
REMARK  164  A    between atoms: _395  and  _397
REMARK  165  A    between atoms: _397  and  _398
REMARK  166  A    between atoms: _397  and  _400
REMARK  167  A    between atoms: _400  and  _401
REMARK  168  A    between atoms: _401  and  _402
REMARK  169  A    between atoms: _404  and  _406
REMARK  170  A    between atoms: _406  and  _407
REMARK  171  A    between atoms: _406  and  _409
REMARK  172  A    between atoms: _409  and  _410
REMARK  173  A    between atoms: _413  and  _415
REMARK  174  A    between atoms: _415  and  _416
REMARK  175  A    between atoms: _418  and  _420
REMARK  176  A    between atoms: _420  and  _421
REMARK  177  A    between atoms: _423  and  _425
REMARK  178  A    between atoms: _425  and  _426
REMARK  179  A    between atoms: _425  and  _428
REMARK  180  A    between atoms: _428  and  _429
REMARK  181  A    between atoms: _432  and  _434
REMARK  182  A    between atoms: _434  and  _435
REMARK  183  A    between atoms: _437  and  _439
REMARK  184  A    between atoms: _439  and  _440
REMARK  185  A    between atoms: _442  and  _444
REMARK  186  A    between atoms: _444  and  _445
REMARK  187  A    between atoms: _444  and  _447
REMARK  188  A    between atoms: _447  and  _448
REMARK  189  A    between atoms: _454  and  _456
REMARK  190  A    between atoms: _456  and  _457
REMARK  191  A    between atoms: _456  and  _459
REMARK  192  A    between atoms: _459  and  _460
REMARK  193  A    between atoms: _463  and  _465
REMARK  194  A    between atoms: _465  and  _466
REMARK  195  A    between atoms: _465  and  _468
REMARK  196  A    between atoms: _471  and  _473
REMARK  197  A    between atoms: _473  and  _474
REMARK  198  A    between atoms: _473  and  _476
REMARK  199  A    between atoms: _479  and  _481
REMARK  200  A    between atoms: _481  and  _482
REMARK  201  A    between atoms: _481  and  _484
REMARK  202  A    between atoms: _484  and  _485
REMARK  203  A    between atoms: _489  and  _490
REMARK  204  A    between atoms: _495  and  _497
REMARK  205  A    between atoms: _497  and  _498
REMARK  206  A    between atoms: _497  and  _500
REMARK  207  A    between atoms: _503  and  _505
REMARK  208  A    between atoms: _505  and  _506
REMARK  209  A    between atoms: _505  and  _508
REMARK  210  A    between atoms: _508  and  _509
REMARK  211  A    between atoms: _514  and  _516
REMARK  212  A    between atoms: _516  and  _517
REMARK  213  A    between atoms: _516  and  _519
REMARK  214  A    between atoms: _519  and  _520
REMARK  215  A    between atoms: _523  and  _525
REMARK  216  A    between atoms: _525  and  _526
REMARK  217  A    between atoms: _525  and  _528
REMARK  218  A    between atoms: _528  and  _529
REMARK  219  A    between atoms: _532  and  _534
REMARK  220  A    between atoms: _534  and  _535
REMARK  221  A    between atoms: _537  and  _539
REMARK  222  A    between atoms: _539  and  _540
REMARK  223  A    between atoms: _539  and  _542
REMARK  224  A    between atoms: _542  and  _543
REMARK  225  A    between atoms: _543  and  _544
REMARK  226  A    between atoms: _544  and  _545
REMARK  227  A    between atoms: _554  and  _556
REMARK  228  A    between atoms: _556  and  _557
REMARK  229  A    between atoms: _556  and  _559
REMARK  230  A    between atoms: _559  and  _560
REMARK                            x       y       z     vdW  Elec       q    Type
REMARK                         _______ _______ _______ _____ _____    ______ ____
ROOT
ATOM      1  O   HOH     1       4.008  17.103  22.172  0.00  0.00    +0.000 OA
ENDROOT
TORSDOF 0
