REMARK  Name = ../refined-set-2016/1syi/1syi_pocket.pdb
REMARK  226 active torsions:
REMARK  status: ('A' for Active; 'I' for Inactive)
REMARK    1  A    between atoms: _1  and  _3
REMARK    2  A    between atoms: _3  and  _4
REMARK    3  A    between atoms: _3  and  _6
REMARK    4  A    between atoms: _6  and  _7
REMARK    5  A    between atoms: _10  and  _12
REMARK    6  A    between atoms: _12  and  _13
REMARK    7  A    between atoms: _12  and  _15
REMARK    8  A    between atoms: _15  and  _16
REMARK    9  A    between atoms: _16  and  _17
REMARK   10  A    between atoms: _20  and  _22
REMARK   11  A    between atoms: _22  and  _23
REMARK   12  A    between atoms: _22  and  _25
REMARK   13  A    between atoms: _25  and  _26
REMARK   14  A    between atoms: _29  and  _30
REMARK   15  A    between atoms: _35  and  _37
REMARK   16  A    between atoms: _37  and  _38
REMARK   17  A    between atoms: _37  and  _40
REMARK   18  A    between atoms: _40  and  _41
REMARK   19  A    between atoms: _46  and  _47
REMARK   20  A    between atoms: _49  and  _51
REMARK   21  A    between atoms: _51  and  _52
REMARK   22  A    between atoms: _51  and  _54
REMARK   23  A    between atoms: _54  and  _55
REMARK   24  A    between atoms: _55  and  _56
REMARK   25  A    between atoms: _56  and  _57
REMARK   26  A    between atoms: _57  and  _58
REMARK   27  A    between atoms: _62  and  _64
REMARK   28  A    between atoms: _64  and  _65
REMARK   29  A    between atoms: _64  and  _67
REMARK   30  A    between atoms: _67  and  _68
REMARK   31  A    between atoms: _73  and  _74
REMARK   32  A    between atoms: _76  and  _78
REMARK   33  A    between atoms: _78  and  _79
REMARK   34  A    between atoms: _81  and  _83
REMARK   35  A    between atoms: _83  and  _84
REMARK   36  A    between atoms: _87  and  _89
REMARK   37  A    between atoms: _89  and  _90
REMARK   38  A    between atoms: _89  and  _92
REMARK   39  A    between atoms: _92  and  _93
REMARK   40  A    between atoms: _103  and  _105
REMARK   41  A    between atoms: _105  and  _106
REMARK   42  A    between atoms: _105  and  _108
REMARK   43  A    between atoms: _108  and  _109
REMARK   44  A    between atoms: _109  and  _110
REMARK   45  A    between atoms: _112  and  _114
REMARK   46  A    between atoms: _114  and  _115
REMARK   47  A    between atoms: _114  and  _117
REMARK   48  A    between atoms: _120  and  _122
REMARK   49  A    between atoms: _122  and  _123
REMARK   50  A    between atoms: _127  and  _128
REMARK   51  A    between atoms: _133  and  _135
REMARK   52  A    between atoms: _135  and  _136
REMARK   53  A    between atoms: _135  and  _138
REMARK   54  A    between atoms: _138  and  _139
REMARK   55  A    between atoms: _142  and  _144
REMARK   56  A    between atoms: _144  and  _145
REMARK   57  A    between atoms: _144  and  _147
REMARK   58  A    between atoms: _147  and  _148
REMARK   59  A    between atoms: _151  and  _153
REMARK   60  A    between atoms: _153  and  _154
REMARK   61  A    between atoms: _153  and  _156
REMARK   62  A    between atoms: _156  and  _157
REMARK   63  A    between atoms: _160  and  _162
REMARK   64  A    between atoms: _162  and  _163
REMARK   65  A    between atoms: _162  and  _165
REMARK   66  A    between atoms: _165  and  _166
REMARK   67  A    between atoms: _169  and  _171
REMARK   68  A    between atoms: _171  and  _172
REMARK   69  A    between atoms: _171  and  _174
REMARK   70  A    between atoms: _174  and  _175
REMARK   71  A    between atoms: _175  and  _176
REMARK   72  A    between atoms: _176  and  _177
REMARK   73  A    between atoms: _186  and  _188
REMARK   74  A    between atoms: _188  and  _189
REMARK   75  A    between atoms: _188  and  _191
REMARK   76  A    between atoms: _191  and  _192
REMARK   77  A    between atoms: _198  and  _200
REMARK   78  A    between atoms: _200  and  _201
REMARK   79  A    between atoms: _200  and  _203
REMARK   80  A    between atoms: _203  and  _204
REMARK   81  A    between atoms: _210  and  _212
REMARK   82  A    between atoms: _212  and  _213
REMARK   83  A    between atoms: _212  and  _215
REMARK   84  A    between atoms: _215  and  _216
REMARK   85  A    between atoms: _219  and  _221
REMARK   86  A    between atoms: _221  and  _222
REMARK   87  A    between atoms: _224  and  _226
REMARK   88  A    between atoms: _226  and  _227
REMARK   89  A    between atoms: _226  and  _229
REMARK   90  A    between atoms: _229  and  _230
REMARK   91  A    between atoms: _233  and  _235
REMARK   92  A    between atoms: _235  and  _236
REMARK   93  A    between atoms: _235  and  _238
REMARK   94  A    between atoms: _238  and  _239
REMARK   95  A    between atoms: _241  and  _243
REMARK   96  A    between atoms: _243  and  _244
REMARK   97  A    between atoms: _243  and  _246
REMARK   98  A    between atoms: _246  and  _247
REMARK   99  A    between atoms: _247  and  _248
REMARK  100  A    between atoms: _250  and  _252
REMARK  101  A    between atoms: _252  and  _253
REMARK  102  A    between atoms: _252  and  _255
REMARK  103  A    between atoms: _255  and  _256
REMARK  104  A    between atoms: _259  and  _261
REMARK  105  A    between atoms: _261  and  _262
REMARK  106  A    between atoms: _261  and  _264
REMARK  107  A    between atoms: _264  and  _265
REMARK  108  A    between atoms: _268  and  _270
REMARK  109  A    between atoms: _270  and  _271
REMARK  110  A    between atoms: _270  and  _273
REMARK  111  A    between atoms: _273  and  _274
REMARK  112  A    between atoms: _277  and  _279
REMARK  113  A    between atoms: _279  and  _280
REMARK  114  A    between atoms: _279  and  _282
REMARK  115  A    between atoms: _282  and  _283
REMARK  116  A    between atoms: _285  and  _287
REMARK  117  A    between atoms: _287  and  _288
REMARK  118  A    between atoms: _290  and  _292
REMARK  119  A    between atoms: _292  and  _293
REMARK  120  A    between atoms: _292  and  _295
REMARK  121  A    between atoms: _295  and  _296
REMARK  122  A    between atoms: _298  and  _300
REMARK  123  A    between atoms: _300  and  _301
REMARK  124  A    between atoms: _300  and  _303
REMARK  125  A    between atoms: _303  and  _304
REMARK  126  A    between atoms: _307  and  _309
REMARK  127  A    between atoms: _309  and  _310
REMARK  128  A    between atoms: _309  and  _312
REMARK  129  A    between atoms: _312  and  _313
REMARK  130  A    between atoms: _313  and  _314
REMARK  131  A    between atoms: _314  and  _315
REMARK  132  A    between atoms: _315  and  _316
REMARK  133  A    between atoms: _320  and  _322
REMARK  134  A    between atoms: _322  and  _323
REMARK  135  A    between atoms: _322  and  _325
REMARK  136  A    between atoms: _325  and  _326
REMARK  137  A    between atoms: _326  and  _327
REMARK  138  A    between atoms: _330  and  _332
REMARK  139  A    between atoms: _332  and  _333
REMARK  140  A    between atoms: _332  and  _335
REMARK  141  A    between atoms: _335  and  _336
REMARK  142  A    between atoms: _342  and  _344
REMARK  143  A    between atoms: _344  and  _345
REMARK  144  A    between atoms: _344  and  _347
REMARK  145  A    between atoms: _347  and  _348
REMARK  146  A    between atoms: _354  and  _356
REMARK  147  A    between atoms: _356  and  _357
REMARK  148  A    between atoms: _356  and  _359
REMARK  149  A    between atoms: _362  and  _364
REMARK  150  A    between atoms: _364  and  _365
REMARK  151  A    between atoms: _364  and  _367
REMARK  152  A    between atoms: _367  and  _368
REMARK  153  A    between atoms: _371  and  _373
REMARK  154  A    between atoms: _373  and  _374
REMARK  155  A    between atoms: _373  and  _376
REMARK  156  A    between atoms: _376  and  _377
REMARK  157  A    between atoms: _380  and  _382
REMARK  158  A    between atoms: _382  and  _383
REMARK  159  A    between atoms: _386  and  _388
REMARK  160  A    between atoms: _388  and  _389
REMARK  161  A    between atoms: _391  and  _393
REMARK  162  A    between atoms: _393  and  _394
REMARK  163  A    between atoms: _393  and  _396
REMARK  164  A    between atoms: _399  and  _401
REMARK  165  A    between atoms: _401  and  _402
REMARK  166  A    between atoms: _401  and  _404
REMARK  167  A    between atoms: _404  and  _405
REMARK  168  A    between atoms: _411  and  _413
REMARK  169  A    between atoms: _413  and  _414
REMARK  170  A    between atoms: _413  and  _416
REMARK  171  A    between atoms: _416  and  _417
REMARK  172  A    between atoms: _420  and  _422
REMARK  173  A    between atoms: _422  and  _423
REMARK  174  A    between atoms: _422  and  _425
REMARK  175  A    between atoms: _425  and  _426
REMARK  176  A    between atoms: _429  and  _431
REMARK  177  A    between atoms: _431  and  _432
REMARK  178  A    between atoms: _431  and  _434
REMARK  179  A    between atoms: _434  and  _435
REMARK  180  A    between atoms: _435  and  _436
REMARK  181  A    between atoms: _439  and  _441
REMARK  182  A    between atoms: _441  and  _442
REMARK  183  A    between atoms: _441  and  _444
REMARK  184  A    between atoms: _444  and  _445
REMARK  185  A    between atoms: _447  and  _449
REMARK  186  A    between atoms: _449  and  _450
REMARK  187  A    between atoms: _449  and  _452
REMARK  188  A    between atoms: _452  and  _453
REMARK  189  A    between atoms: _456  and  _458
REMARK  190  A    between atoms: _458  and  _459
REMARK  191  A    between atoms: _458  and  _461
REMARK  192  A    between atoms: _461  and  _462
REMARK  193  A    between atoms: _462  and  _463
REMARK  194  A    between atoms: _465  and  _467
REMARK  195  A    between atoms: _467  and  _468
REMARK  196  A    between atoms: _467  and  _470
REMARK  197  A    between atoms: _470  and  _471
REMARK  198  A    between atoms: _476  and  _478
REMARK  199  A    between atoms: _478  and  _479
REMARK  200  A    between atoms: _478  and  _481
REMARK  201  A    between atoms: _481  and  _482
REMARK  202  A    between atoms: _487  and  _488
REMARK  203  A    between atoms: _490  and  _492
REMARK  204  A    between atoms: _492  and  _493
REMARK  205  A    between atoms: _492  and  _495
REMARK  206  A    between atoms: _495  and  _496
REMARK  207  A    between atoms: _499  and  _501
REMARK  208  A    between atoms: _501  and  _502
REMARK  209  A    between atoms: _501  and  _504
REMARK  210  A    between atoms: _504  and  _505
REMARK  211  A    between atoms: _505  and  _506
REMARK  212  A    between atoms: _506  and  _507
REMARK  213  A    between atoms: _507  and  _508
REMARK  214  A    between atoms: _512  and  _514
REMARK  215  A    between atoms: _514  and  _515
REMARK  216  A    between atoms: _517  and  _519
REMARK  217  A    between atoms: _519  and  _520
REMARK  218  A    between atoms: _519  and  _522
REMARK  219  A    between atoms: _522  and  _523
REMARK  220  A    between atoms: _528  and  _529
REMARK  221  A    between atoms: _531  and  _533
REMARK  222  A    between atoms: _533  and  _534
REMARK  223  A    between atoms: _536  and  _538
REMARK  224  A    between atoms: _538  and  _539
REMARK  225  A    between atoms: _538  and  _541
REMARK  226  A    between atoms: _541  and  _542
REMARK                            x       y       z     vdW  Elec       q    Type
REMARK                         _______ _______ _______ _____ _____    ______ ____
ROOT
ATOM      1  CA  ILE A   1      12.134  18.167  53.711  0.00  0.00    +0.133 C 
ENDROOT
BRANCH   1   2
ATOM      2  N   ILE A   1      11.649  18.956  54.832  0.00  0.00    -0.239 NA
ATOM      3  H   ILE A   1      11.446  18.493  55.741  0.00  0.00    +0.142 HD
ENDBRANCH   1   2
BRANCH   1   4
ATOM      4  CB  ILE A   1      13.652  17.920  53.874  0.00  0.00    +0.023 C 
ATOM      5  CG2 ILE A   1      13.911  17.140  55.162  0.00  0.00    +0.002 C 
BRANCH   4   6
ATOM      6  CG1 ILE A   1      14.212  17.192  52.650  0.00  0.00    +0.002 C 
ATOM      7  CD1 ILE A   1      15.742  17.192  52.593  0.00  0.00    +0.000 C 
ENDBRANCH   4   6
ENDBRANCH   1   4
BRANCH   1   8
ATOM      8  C   ILE A   1      11.404  16.836  53.584  0.00  0.00    +0.224 C 
ATOM      9  O   ILE A   1      10.995  16.248  54.585  0.00  0.00    -0.287 OA
ENDBRANCH   1   8
TORSDOF 4
REMARK  Name = ../refined-set-2016/1syi/1syi_pocket.pdb
REMARK  226 active torsions:
REMARK  status: ('A' for Active; 'I' for Inactive)
REMARK    1  A    between atoms: _1  and  _3
REMARK    2  A    between atoms: _3  and  _4
REMARK    3  A    between atoms: _3  and  _6
REMARK    4  A    between atoms: _6  and  _7
REMARK    5  A    between atoms: _10  and  _12
REMARK    6  A    between atoms: _12  and  _13
REMARK    7  A    between atoms: _12  and  _15
REMARK    8  A    between atoms: _15  and  _16
REMARK    9  A    between atoms: _16  and  _17
REMARK   10  A    between atoms: _20  and  _22
REMARK   11  A    between atoms: _22  and  _23
REMARK   12  A    between atoms: _22  and  _25
REMARK   13  A    between atoms: _25  and  _26
REMARK   14  A    between atoms: _29  and  _30
REMARK   15  A    between atoms: _35  and  _37
REMARK   16  A    between atoms: _37  and  _38
REMARK   17  A    between atoms: _37  and  _40
REMARK   18  A    between atoms: _40  and  _41
REMARK   19  A    between atoms: _46  and  _47
REMARK   20  A    between atoms: _49  and  _51
REMARK   21  A    between atoms: _51  and  _52
REMARK   22  A    between atoms: _51  and  _54
REMARK   23  A    between atoms: _54  and  _55
REMARK   24  A    between atoms: _55  and  _56
REMARK   25  A    between atoms: _56  and  _57
REMARK   26  A    between atoms: _57  and  _58
REMARK   27  A    between atoms: _62  and  _64
REMARK   28  A    between atoms: _64  and  _65
REMARK   29  A    between atoms: _64  and  _67
REMARK   30  A    between atoms: _67  and  _68
REMARK   31  A    between atoms: _73  and  _74
REMARK   32  A    between atoms: _76  and  _78
REMARK   33  A    between atoms: _78  and  _79
REMARK   34  A    between atoms: _81  and  _83
REMARK   35  A    between atoms: _83  and  _84
REMARK   36  A    between atoms: _87  and  _89
REMARK   37  A    between atoms: _89  and  _90
REMARK   38  A    between atoms: _89  and  _92
REMARK   39  A    between atoms: _92  and  _93
REMARK   40  A    between atoms: _103  and  _105
REMARK   41  A    between atoms: _105  and  _106
REMARK   42  A    between atoms: _105  and  _108
REMARK   43  A    between atoms: _108  and  _109
REMARK   44  A    between atoms: _109  and  _110
REMARK   45  A    between atoms: _112  and  _114
REMARK   46  A    between atoms: _114  and  _115
REMARK   47  A    between atoms: _114  and  _117
REMARK   48  A    between atoms: _120  and  _122
REMARK   49  A    between atoms: _122  and  _123
REMARK   50  A    between atoms: _127  and  _128
REMARK   51  A    between atoms: _133  and  _135
REMARK   52  A    between atoms: _135  and  _136
REMARK   53  A    between atoms: _135  and  _138
REMARK   54  A    between atoms: _138  and  _139
REMARK   55  A    between atoms: _142  and  _144
REMARK   56  A    between atoms: _144  and  _145
REMARK   57  A    between atoms: _144  and  _147
REMARK   58  A    between atoms: _147  and  _148
REMARK   59  A    between atoms: _151  and  _153
REMARK   60  A    between atoms: _153  and  _154
REMARK   61  A    between atoms: _153  and  _156
REMARK   62  A    between atoms: _156  and  _157
REMARK   63  A    between atoms: _160  and  _162
REMARK   64  A    between atoms: _162  and  _163
REMARK   65  A    between atoms: _162  and  _165
REMARK   66  A    between atoms: _165  and  _166
REMARK   67  A    between atoms: _169  and  _171
REMARK   68  A    between atoms: _171  and  _172
REMARK   69  A    between atoms: _171  and  _174
REMARK   70  A    between atoms: _174  and  _175
REMARK   71  A    between atoms: _175  and  _176
REMARK   72  A    between atoms: _176  and  _177
REMARK   73  A    between atoms: _186  and  _188
REMARK   74  A    between atoms: _188  and  _189
REMARK   75  A    between atoms: _188  and  _191
REMARK   76  A    between atoms: _191  and  _192
REMARK   77  A    between atoms: _198  and  _200
REMARK   78  A    between atoms: _200  and  _201
REMARK   79  A    between atoms: _200  and  _203
REMARK   80  A    between atoms: _203  and  _204
REMARK   81  A    between atoms: _210  and  _212
REMARK   82  A    between atoms: _212  and  _213
REMARK   83  A    between atoms: _212  and  _215
REMARK   84  A    between atoms: _215  and  _216
REMARK   85  A    between atoms: _219  and  _221
REMARK   86  A    between atoms: _221  and  _222
REMARK   87  A    between atoms: _224  and  _226
REMARK   88  A    between atoms: _226  and  _227
REMARK   89  A    between atoms: _226  and  _229
REMARK   90  A    between atoms: _229  and  _230
REMARK   91  A    between atoms: _233  and  _235
REMARK   92  A    between atoms: _235  and  _236
REMARK   93  A    between atoms: _235  and  _238
REMARK   94  A    between atoms: _238  and  _239
REMARK   95  A    between atoms: _241  and  _243
REMARK   96  A    between atoms: _243  and  _244
REMARK   97  A    between atoms: _243  and  _246
REMARK   98  A    between atoms: _246  and  _247
REMARK   99  A    between atoms: _247  and  _248
REMARK  100  A    between atoms: _250  and  _252
REMARK  101  A    between atoms: _252  and  _253
REMARK  102  A    between atoms: _252  and  _255
REMARK  103  A    between atoms: _255  and  _256
REMARK  104  A    between atoms: _259  and  _261
REMARK  105  A    between atoms: _261  and  _262
REMARK  106  A    between atoms: _261  and  _264
REMARK  107  A    between atoms: _264  and  _265
REMARK  108  A    between atoms: _268  and  _270
REMARK  109  A    between atoms: _270  and  _271
REMARK  110  A    between atoms: _270  and  _273
REMARK  111  A    between atoms: _273  and  _274
REMARK  112  A    between atoms: _277  and  _279
REMARK  113  A    between atoms: _279  and  _280
REMARK  114  A    between atoms: _279  and  _282
REMARK  115  A    between atoms: _282  and  _283
REMARK  116  A    between atoms: _285  and  _287
REMARK  117  A    between atoms: _287  and  _288
REMARK  118  A    between atoms: _290  and  _292
REMARK  119  A    between atoms: _292  and  _293
REMARK  120  A    between atoms: _292  and  _295
REMARK  121  A    between atoms: _295  and  _296
REMARK  122  A    between atoms: _298  and  _300
REMARK  123  A    between atoms: _300  and  _301
REMARK  124  A    between atoms: _300  and  _303
REMARK  125  A    between atoms: _303  and  _304
REMARK  126  A    between atoms: _307  and  _309
REMARK  127  A    between atoms: _309  and  _310
REMARK  128  A    between atoms: _309  and  _312
REMARK  129  A    between atoms: _312  and  _313
REMARK  130  A    between atoms: _313  and  _314
REMARK  131  A    between atoms: _314  and  _315
REMARK  132  A    between atoms: _315  and  _316
REMARK  133  A    between atoms: _320  and  _322
REMARK  134  A    between atoms: _322  and  _323
REMARK  135  A    between atoms: _322  and  _325
REMARK  136  A    between atoms: _325  and  _326
REMARK  137  A    between atoms: _326  and  _327
REMARK  138  A    between atoms: _330  and  _332
REMARK  139  A    between atoms: _332  and  _333
REMARK  140  A    between atoms: _332  and  _335
REMARK  141  A    between atoms: _335  and  _336
REMARK  142  A    between atoms: _342  and  _344
REMARK  143  A    between atoms: _344  and  _345
REMARK  144  A    between atoms: _344  and  _347
REMARK  145  A    between atoms: _347  and  _348
REMARK  146  A    between atoms: _354  and  _356
REMARK  147  A    between atoms: _356  and  _357
REMARK  148  A    between atoms: _356  and  _359
REMARK  149  A    between atoms: _362  and  _364
REMARK  150  A    between atoms: _364  and  _365
REMARK  151  A    between atoms: _364  and  _367
REMARK  152  A    between atoms: _367  and  _368
REMARK  153  A    between atoms: _371  and  _373
REMARK  154  A    between atoms: _373  and  _374
REMARK  155  A    between atoms: _373  and  _376
REMARK  156  A    between atoms: _376  and  _377
REMARK  157  A    between atoms: _380  and  _382
REMARK  158  A    between atoms: _382  and  _383
REMARK  159  A    between atoms: _386  and  _388
REMARK  160  A    between atoms: _388  and  _389
REMARK  161  A    between atoms: _391  and  _393
REMARK  162  A    between atoms: _393  and  _394
REMARK  163  A    between atoms: _393  and  _396
REMARK  164  A    between atoms: _399  and  _401
REMARK  165  A    between atoms: _401  and  _402
REMARK  166  A    between atoms: _401  and  _404
REMARK  167  A    between atoms: _404  and  _405
REMARK  168  A    between atoms: _411  and  _413
REMARK  169  A    between atoms: _413  and  _414
REMARK  170  A    between atoms: _413  and  _416
REMARK  171  A    between atoms: _416  and  _417
REMARK  172  A    between atoms: _420  and  _422
REMARK  173  A    between atoms: _422  and  _423
REMARK  174  A    between atoms: _422  and  _425
REMARK  175  A    between atoms: _425  and  _426
REMARK  176  A    between atoms: _429  and  _431
REMARK  177  A    between atoms: _431  and  _432
REMARK  178  A    between atoms: _431  and  _434
REMARK  179  A    between atoms: _434  and  _435
REMARK  180  A    between atoms: _435  and  _436
REMARK  181  A    between atoms: _439  and  _441
REMARK  182  A    between atoms: _441  and  _442
REMARK  183  A    between atoms: _441  and  _444
REMARK  184  A    between atoms: _444  and  _445
REMARK  185  A    between atoms: _447  and  _449
REMARK  186  A    between atoms: _449  and  _450
REMARK  187  A    between atoms: _449  and  _452
REMARK  188  A    between atoms: _452  and  _453
REMARK  189  A    between atoms: _456  and  _458
REMARK  190  A    between atoms: _458  and  _459
REMARK  191  A    between atoms: _458  and  _461
REMARK  192  A    between atoms: _461  and  _462
REMARK  193  A    between atoms: _462  and  _463
REMARK  194  A    between atoms: _465  and  _467
REMARK  195  A    between atoms: _467  and  _468
REMARK  196  A    between atoms: _467  and  _470
REMARK  197  A    between atoms: _470  and  _471
REMARK  198  A    between atoms: _476  and  _478
REMARK  199  A    between atoms: _478  and  _479
REMARK  200  A    between atoms: _478  and  _481
REMARK  201  A    between atoms: _481  and  _482
REMARK  202  A    between atoms: _487  and  _488
REMARK  203  A    between atoms: _490  and  _492
REMARK  204  A    between atoms: _492  and  _493
REMARK  205  A    between atoms: _492  and  _495
REMARK  206  A    between atoms: _495  and  _496
REMARK  207  A    between atoms: _499  and  _501
REMARK  208  A    between atoms: _501  and  _502
REMARK  209  A    between atoms: _501  and  _504
REMARK  210  A    between atoms: _504  and  _505
REMARK  211  A    between atoms: _505  and  _506
REMARK  212  A    between atoms: _506  and  _507
REMARK  213  A    between atoms: _507  and  _508
REMARK  214  A    between atoms: _512  and  _514
REMARK  215  A    between atoms: _514  and  _515
REMARK  216  A    between atoms: _517  and  _519
REMARK  217  A    between atoms: _519  and  _520
REMARK  218  A    between atoms: _519  and  _522
REMARK  219  A    between atoms: _522  and  _523
REMARK  220  A    between atoms: _528  and  _529
REMARK  221  A    between atoms: _531  and  _533
REMARK  222  A    between atoms: _533  and  _534
REMARK  223  A    between atoms: _536  and  _538
REMARK  224  A    between atoms: _538  and  _539
REMARK  225  A    between atoms: _538  and  _541
REMARK  226  A    between atoms: _541  and  _542
REMARK                            x       y       z     vdW  Elec       q    Type
REMARK                         _______ _______ _______ _____ _____    ______ ____
ROOT
ATOM      1  C   SER A   2      10.754   8.929  56.730  0.00  0.00    +0.246 C 
ATOM      2  N   PRO A   3       9.991   8.865  57.835  0.00  0.00    -0.272 N 
ATOM      3  CD  PRO A   3      10.465   8.117  59.015  0.00  0.00    +0.094 C 
ATOM      4  CG  PRO A   3       9.207   8.019  59.887  0.00  0.00    +0.024 C 
ATOM      5  CB  PRO A   3       8.084   8.044  58.884  0.00  0.00    +0.031 C 
ATOM      6  CA  PRO A   3       8.553   9.142  57.949  0.00  0.00    +0.152 C 
ATOM      7  O   SER A   2      11.958   8.664  56.752  0.00  0.00    -0.273 OA
ENDROOT
BRANCH   6   8
ATOM      8  C   PRO A   3       8.267  10.534  58.530  0.00  0.00    +0.241 C 
ATOM      9  O   PRO A   3       7.176  10.783  59.045  0.00  0.00    -0.273 OA
ATOM     10  N   TYR A   4       9.255  11.426  58.445  0.00  0.00    -0.298 N 
ATOM     11  H   TYR A   4      10.141  11.142  57.981  0.00  0.00    +0.150 HD
BRANCH  10  12
ATOM     12  CA  TYR A   4       9.149  12.786  58.975  0.00  0.00    +0.141 C 
BRANCH  12  13
ATOM     13  C   TYR A   4       8.149  13.668  58.232  0.00  0.00    +0.227 C 
ATOM     14  O   TYR A   4       7.291  14.304  58.847  0.00  0.00    -0.286 OA
ENDBRANCH  12  13
BRANCH  12  15
ATOM     15  CB  TYR A   4      10.535  13.421  58.972  0.00  0.00    +0.054 C 
BRANCH  15  16
ATOM     16  CG  TYR A   4      11.502  12.644  59.840  0.00  0.00    -0.020 A 
ATOM     17  CD2 TYR A   4      11.451  12.740  61.231  0.00  0.00    -0.001 A 
ATOM     18  CE2 TYR A   4      12.290  11.975  62.034  0.00  0.00    +0.036 A 
ATOM     19  CZ  TYR A   4      13.190  11.100  61.442  0.00  0.00    +0.134 A 
ATOM     20  CE1 TYR A   4      13.259  10.989  60.062  0.00  0.00    +0.036 A 
ATOM     21  CD1 TYR A   4      12.421  11.761  59.271  0.00  0.00    -0.001 A 
BRANCH  19  22
ATOM     22  OH  TYR A   4      14.014  10.327  62.225  0.00  0.00    -0.506 OA
ATOM     23  HH  TYR A   4      14.959  10.531  62.010  0.00  0.00    +0.292 HD
ENDBRANCH  19  22
ENDBRANCH  15  16
ENDBRANCH  12  15
ENDBRANCH  10  12
ENDBRANCH   6   8
BRANCH   1  24
ATOM     24  CA  SER A   2      10.075   9.328  55.424  0.00  0.00    +0.178 C 
BRANCH  24  27
ATOM     25  C   GLU A   1      11.156  11.497  55.131  0.00  0.00    +0.238 C 
ATOM     26  O   GLU A   1      10.658  11.949  56.162  0.00  0.00    -0.274 OA
ATOM     27  N   SER A   2      10.926  10.261  54.692  0.00  0.00    -0.295 N 
ATOM     28  H   SER A   2      11.366   9.951  53.802  0.00  0.00    +0.150 HD
BRANCH  25  29
ATOM     29  CA  GLU A   1      12.073  12.364  54.275  0.00  0.00    +0.145 C 
BRANCH  29  30
ATOM     30  N   GLU A   1      11.281  13.464  53.743  0.00  0.00    -0.238 NA
ATOM     31  H   GLU A   1      10.547  13.887  54.346  0.00  0.00    +0.142 HD
ENDBRANCH  29  30
BRANCH  29  32
ATOM     32  CB  GLU A   1      13.210  12.910  55.139  0.00  0.00    +0.038 C 
BRANCH  32  33
ATOM     33  CG  GLU A   1      14.268  11.884  55.547  0.00  0.00    +0.116 C 
BRANCH  33  34
ATOM     34  CD  GLU A   1      15.138  11.460  54.377  0.00  0.00    +0.365 C 
ATOM     35  OE2 GLU A   1      16.210  12.079  54.192  0.00  0.00    -0.246 OA
ATOM     36  OE1 GLU A   1      14.745  10.529  53.635  0.00  0.00    -0.246 OA
ENDBRANCH  33  34
ENDBRANCH  32  33
ENDBRANCH  29  32
ENDBRANCH  25  29
ENDBRANCH  24  27
BRANCH  24  37
ATOM     37  CB  SER A   2       9.839   8.069  54.592  0.00  0.00    +0.166 C 
BRANCH  37  38
ATOM     38  OG  SER A   2       9.325   8.397  53.312  0.00  0.00    -0.380 OA
ATOM     39  H   SER A   2       9.181   7.566  52.793  0.00  0.00    +0.211 HD
ENDBRANCH  37  38
ENDBRANCH  24  37
ENDBRANCH   1  24
TORSDOF 15
REMARK  Name = ../refined-set-2016/1syi/1syi_pocket.pdb
REMARK  226 active torsions:
REMARK  status: ('A' for Active; 'I' for Inactive)
REMARK    1  A    between atoms: _1  and  _3
REMARK    2  A    between atoms: _3  and  _4
REMARK    3  A    between atoms: _3  and  _6
REMARK    4  A    between atoms: _6  and  _7
REMARK    5  A    between atoms: _10  and  _12
REMARK    6  A    between atoms: _12  and  _13
REMARK    7  A    between atoms: _12  and  _15
REMARK    8  A    between atoms: _15  and  _16
REMARK    9  A    between atoms: _16  and  _17
REMARK   10  A    between atoms: _20  and  _22
REMARK   11  A    between atoms: _22  and  _23
REMARK   12  A    between atoms: _22  and  _25
REMARK   13  A    between atoms: _25  and  _26
REMARK   14  A    between atoms: _29  and  _30
REMARK   15  A    between atoms: _35  and  _37
REMARK   16  A    between atoms: _37  and  _38
REMARK   17  A    between atoms: _37  and  _40
REMARK   18  A    between atoms: _40  and  _41
REMARK   19  A    between atoms: _46  and  _47
REMARK   20  A    between atoms: _49  and  _51
REMARK   21  A    between atoms: _51  and  _52
REMARK   22  A    between atoms: _51  and  _54
REMARK   23  A    between atoms: _54  and  _55
REMARK   24  A    between atoms: _55  and  _56
REMARK   25  A    between atoms: _56  and  _57
REMARK   26  A    between atoms: _57  and  _58
REMARK   27  A    between atoms: _62  and  _64
REMARK   28  A    between atoms: _64  and  _65
REMARK   29  A    between atoms: _64  and  _67
REMARK   30  A    between atoms: _67  and  _68
REMARK   31  A    between atoms: _73  and  _74
REMARK   32  A    between atoms: _76  and  _78
REMARK   33  A    between atoms: _78  and  _79
REMARK   34  A    between atoms: _81  and  _83
REMARK   35  A    between atoms: _83  and  _84
REMARK   36  A    between atoms: _87  and  _89
REMARK   37  A    between atoms: _89  and  _90
REMARK   38  A    between atoms: _89  and  _92
REMARK   39  A    between atoms: _92  and  _93
REMARK   40  A    between atoms: _103  and  _105
REMARK   41  A    between atoms: _105  and  _106
REMARK   42  A    between atoms: _105  and  _108
REMARK   43  A    between atoms: _108  and  _109
REMARK   44  A    between atoms: _109  and  _110
REMARK   45  A    between atoms: _112  and  _114
REMARK   46  A    between atoms: _114  and  _115
REMARK   47  A    between atoms: _114  and  _117
REMARK   48  A    between atoms: _120  and  _122
REMARK   49  A    between atoms: _122  and  _123
REMARK   50  A    between atoms: _127  and  _128
REMARK   51  A    between atoms: _133  and  _135
REMARK   52  A    between atoms: _135  and  _136
REMARK   53  A    between atoms: _135  and  _138
REMARK   54  A    between atoms: _138  and  _139
REMARK   55  A    between atoms: _142  and  _144
REMARK   56  A    between atoms: _144  and  _145
REMARK   57  A    between atoms: _144  and  _147
REMARK   58  A    between atoms: _147  and  _148
REMARK   59  A    between atoms: _151  and  _153
REMARK   60  A    between atoms: _153  and  _154
REMARK   61  A    between atoms: _153  and  _156
REMARK   62  A    between atoms: _156  and  _157
REMARK   63  A    between atoms: _160  and  _162
REMARK   64  A    between atoms: _162  and  _163
REMARK   65  A    between atoms: _162  and  _165
REMARK   66  A    between atoms: _165  and  _166
REMARK   67  A    between atoms: _169  and  _171
REMARK   68  A    between atoms: _171  and  _172
REMARK   69  A    between atoms: _171  and  _174
REMARK   70  A    between atoms: _174  and  _175
REMARK   71  A    between atoms: _175  and  _176
REMARK   72  A    between atoms: _176  and  _177
REMARK   73  A    between atoms: _186  and  _188
REMARK   74  A    between atoms: _188  and  _189
REMARK   75  A    between atoms: _188  and  _191
REMARK   76  A    between atoms: _191  and  _192
REMARK   77  A    between atoms: _198  and  _200
REMARK   78  A    between atoms: _200  and  _201
REMARK   79  A    between atoms: _200  and  _203
REMARK   80  A    between atoms: _203  and  _204
REMARK   81  A    between atoms: _210  and  _212
REMARK   82  A    between atoms: _212  and  _213
REMARK   83  A    between atoms: _212  and  _215
REMARK   84  A    between atoms: _215  and  _216
REMARK   85  A    between atoms: _219  and  _221
REMARK   86  A    between atoms: _221  and  _222
REMARK   87  A    between atoms: _224  and  _226
REMARK   88  A    between atoms: _226  and  _227
REMARK   89  A    between atoms: _226  and  _229
REMARK   90  A    between atoms: _229  and  _230
REMARK   91  A    between atoms: _233  and  _235
REMARK   92  A    between atoms: _235  and  _236
REMARK   93  A    between atoms: _235  and  _238
REMARK   94  A    between atoms: _238  and  _239
REMARK   95  A    between atoms: _241  and  _243
REMARK   96  A    between atoms: _243  and  _244
REMARK   97  A    between atoms: _243  and  _246
REMARK   98  A    between atoms: _246  and  _247
REMARK   99  A    between atoms: _247  and  _248
REMARK  100  A    between atoms: _250  and  _252
REMARK  101  A    between atoms: _252  and  _253
REMARK  102  A    between atoms: _252  and  _255
REMARK  103  A    between atoms: _255  and  _256
REMARK  104  A    between atoms: _259  and  _261
REMARK  105  A    between atoms: _261  and  _262
REMARK  106  A    between atoms: _261  and  _264
REMARK  107  A    between atoms: _264  and  _265
REMARK  108  A    between atoms: _268  and  _270
REMARK  109  A    between atoms: _270  and  _271
REMARK  110  A    between atoms: _270  and  _273
REMARK  111  A    between atoms: _273  and  _274
REMARK  112  A    between atoms: _277  and  _279
REMARK  113  A    between atoms: _279  and  _280
REMARK  114  A    between atoms: _279  and  _282
REMARK  115  A    between atoms: _282  and  _283
REMARK  116  A    between atoms: _285  and  _287
REMARK  117  A    between atoms: _287  and  _288
REMARK  118  A    between atoms: _290  and  _292
REMARK  119  A    between atoms: _292  and  _293
REMARK  120  A    between atoms: _292  and  _295
REMARK  121  A    between atoms: _295  and  _296
REMARK  122  A    between atoms: _298  and  _300
REMARK  123  A    between atoms: _300  and  _301
REMARK  124  A    between atoms: _300  and  _303
REMARK  125  A    between atoms: _303  and  _304
REMARK  126  A    between atoms: _307  and  _309
REMARK  127  A    between atoms: _309  and  _310
REMARK  128  A    between atoms: _309  and  _312
REMARK  129  A    between atoms: _312  and  _313
REMARK  130  A    between atoms: _313  and  _314
REMARK  131  A    between atoms: _314  and  _315
REMARK  132  A    between atoms: _315  and  _316
REMARK  133  A    between atoms: _320  and  _322
REMARK  134  A    between atoms: _322  and  _323
REMARK  135  A    between atoms: _322  and  _325
REMARK  136  A    between atoms: _325  and  _326
REMARK  137  A    between atoms: _326  and  _327
REMARK  138  A    between atoms: _330  and  _332
REMARK  139  A    between atoms: _332  and  _333
REMARK  140  A    between atoms: _332  and  _335
REMARK  141  A    between atoms: _335  and  _336
REMARK  142  A    between atoms: _342  and  _344
REMARK  143  A    between atoms: _344  and  _345
REMARK  144  A    between atoms: _344  and  _347
REMARK  145  A    between atoms: _347  and  _348
REMARK  146  A    between atoms: _354  and  _356
REMARK  147  A    between atoms: _356  and  _357
REMARK  148  A    between atoms: _356  and  _359
REMARK  149  A    between atoms: _362  and  _364
REMARK  150  A    between atoms: _364  and  _365
REMARK  151  A    between atoms: _364  and  _367
REMARK  152  A    between atoms: _367  and  _368
REMARK  153  A    between atoms: _371  and  _373
REMARK  154  A    between atoms: _373  and  _374
REMARK  155  A    between atoms: _373  and  _376
REMARK  156  A    between atoms: _376  and  _377
REMARK  157  A    between atoms: _380  and  _382
REMARK  158  A    between atoms: _382  and  _383
REMARK  159  A    between atoms: _386  and  _388
REMARK  160  A    between atoms: _388  and  _389
REMARK  161  A    between atoms: _391  and  _393
REMARK  162  A    between atoms: _393  and  _394
REMARK  163  A    between atoms: _393  and  _396
REMARK  164  A    between atoms: _399  and  _401
REMARK  165  A    between atoms: _401  and  _402
REMARK  166  A    between atoms: _401  and  _404
REMARK  167  A    between atoms: _404  and  _405
REMARK  168  A    between atoms: _411  and  _413
REMARK  169  A    between atoms: _413  and  _414
REMARK  170  A    between atoms: _413  and  _416
REMARK  171  A    between atoms: _416  and  _417
REMARK  172  A    between atoms: _420  and  _422
REMARK  173  A    between atoms: _422  and  _423
REMARK  174  A    between atoms: _422  and  _425
REMARK  175  A    between atoms: _425  and  _426
REMARK  176  A    between atoms: _429  and  _431
REMARK  177  A    between atoms: _431  and  _432
REMARK  178  A    between atoms: _431  and  _434
REMARK  179  A    between atoms: _434  and  _435
REMARK  180  A    between atoms: _435  and  _436
REMARK  181  A    between atoms: _439  and  _441
REMARK  182  A    between atoms: _441  and  _442
REMARK  183  A    between atoms: _441  and  _444
REMARK  184  A    between atoms: _444  and  _445
REMARK  185  A    between atoms: _447  and  _449
REMARK  186  A    between atoms: _449  and  _450
REMARK  187  A    between atoms: _449  and  _452
REMARK  188  A    between atoms: _452  and  _453
REMARK  189  A    between atoms: _456  and  _458
REMARK  190  A    between atoms: _458  and  _459
REMARK  191  A    between atoms: _458  and  _461
REMARK  192  A    between atoms: _461  and  _462
REMARK  193  A    between atoms: _462  and  _463
REMARK  194  A    between atoms: _465  and  _467
REMARK  195  A    between atoms: _467  and  _468
REMARK  196  A    between atoms: _467  and  _470
REMARK  197  A    between atoms: _470  and  _471
REMARK  198  A    between atoms: _476  and  _478
REMARK  199  A    between atoms: _478  and  _479
REMARK  200  A    between atoms: _478  and  _481
REMARK  201  A    between atoms: _481  and  _482
REMARK  202  A    between atoms: _487  and  _488
REMARK  203  A    between atoms: _490  and  _492
REMARK  204  A    between atoms: _492  and  _493
REMARK  205  A    between atoms: _492  and  _495
REMARK  206  A    between atoms: _495  and  _496
REMARK  207  A    between atoms: _499  and  _501
REMARK  208  A    between atoms: _501  and  _502
REMARK  209  A    between atoms: _501  and  _504
REMARK  210  A    between atoms: _504  and  _505
REMARK  211  A    between atoms: _505  and  _506
REMARK  212  A    between atoms: _506  and  _507
REMARK  213  A    between atoms: _507  and  _508
REMARK  214  A    between atoms: _512  and  _514
REMARK  215  A    between atoms: _514  and  _515
REMARK  216  A    between atoms: _517  and  _519
REMARK  217  A    between atoms: _519  and  _520
REMARK  218  A    between atoms: _519  and  _522
REMARK  219  A    between atoms: _522  and  _523
REMARK  220  A    between atoms: _528  and  _529
REMARK  221  A    between atoms: _531  and  _533
REMARK  222  A    between atoms: _533  and  _534
REMARK  223  A    between atoms: _536  and  _538
REMARK  224  A    between atoms: _538  and  _539
REMARK  225  A    between atoms: _538  and  _541
REMARK  226  A    between atoms: _541  and  _542
REMARK                            x       y       z     vdW  Elec       q    Type
REMARK                         _______ _______ _______ _____ _____    ______ ____
ROOT
ATOM      1  CA  TYR A   2      19.743  19.716  54.947  0.00  0.00    +0.153 C 
ENDROOT
BRANCH   1   3
ATOM      2  C   LYS A   1      18.953  19.933  52.651  0.00  0.00    +0.238 C 
ATOM      3  N   TYR A   2      19.814  19.418  53.523  0.00  0.00    -0.297 N 
ATOM      4  H   TYR A   2      20.561  18.783  53.178  0.00  0.00    +0.150 HD
ATOM      5  O   LYS A   1      18.050  20.710  52.974  0.00  0.00    -0.274 OA
BRANCH   2   6
ATOM      6  CA  LYS A   1      19.165  19.525  51.195  0.00  0.00    +0.145 C 
BRANCH   6   7
ATOM      7  N   LYS A   1      18.011  19.801  50.343  0.00  0.00    -0.238 NA
ATOM      8  H   LYS A   1      17.750  20.787  50.141  0.00  0.00    +0.142 HD
ENDBRANCH   6   7
BRANCH   6   9
ATOM      9  CB  LYS A   1      20.407  20.247  50.662  0.00  0.00    +0.026 C 
BRANCH   9  10
ATOM     10  CG  LYS A   1      20.907  19.763  49.308  0.00  0.00    -0.000 C 
BRANCH  10  11
ATOM     11  CD  LYS A   1      22.201  20.464  48.957  0.00  0.00    -0.024 C 
BRANCH  11  12
ATOM     12  CE  LYS A   1      22.832  19.898  47.698  0.00  0.00    -0.086 C 
BRANCH  12  13
ATOM     13  NZ  LYS A   1      21.988  20.136  46.510  0.00  0.00    +0.380 N 
ATOM     14  HZ1 LYS A   1      21.063  19.681  46.647  0.00  0.00    -0.089 HD
ATOM     15  HZ2 LYS A   1      21.856  21.159  46.379  0.00  0.00    -0.089 HD
ATOM     16  HZ3 LYS A   1      22.453  19.735  45.670  0.00  0.00    -0.089 HD
ENDBRANCH  12  13
ENDBRANCH  11  12
ENDBRANCH  10  11
ENDBRANCH   9  10
ENDBRANCH   6   9
ENDBRANCH   2   6
ENDBRANCH   1   3
BRANCH   1  17
ATOM     17  C   TYR A   2      20.449  21.022  55.298  0.00  0.00    +0.241 C 
ATOM     18  O   TYR A   2      19.834  21.936  55.853  0.00  0.00    -0.273 OA
ATOM     19  N   GLY A   3      21.731  21.119  54.966  0.00  0.00    -0.295 N 
ATOM     20  H   GLY A   3      22.214  20.323  54.503  0.00  0.00    +0.150 HD
BRANCH  19  21
ATOM     21  CA  GLY A   3      22.450  22.341  55.253  0.00  0.00    +0.176 C 
BRANCH  21  22
ATOM     22  C   GLY A   3      23.951  22.197  55.366  0.00  0.00    +0.243 C 
ATOM     23  O   GLY A   3      24.461  21.604  56.319  0.00  0.00    -0.273 OA
ATOM     24  N   ALA A   4      24.661  22.747  54.389  0.00  0.00    -0.298 N 
ATOM     25  H   ALA A   4      24.164  23.216  53.605  0.00  0.00    +0.150 HD
BRANCH  24  26
ATOM     26  CA  ALA A   4      26.114  22.713  54.384  0.00  0.00    +0.137 C 
ATOM     27  CB  ALA A   4      26.615  21.530  53.560  0.00  0.00    +0.030 C 
BRANCH  26  28
ATOM     28  C   ALA A   4      26.614  24.026  53.793  0.00  0.00    +0.227 C 
ATOM     29  O   ALA A   4      25.927  24.650  52.984  0.00  0.00    -0.286 OA
ENDBRANCH  26  28
ENDBRANCH  24  26
ENDBRANCH  21  22
ENDBRANCH  19  21
ENDBRANCH   1  17
BRANCH   1  30
ATOM     30  CB  TYR A   2      20.319  18.539  55.737  0.00  0.00    +0.055 C 
BRANCH  30  31
ATOM     31  CG  TYR A   2      19.314  17.426  55.852  0.00  0.00    -0.020 A 
ATOM     32  CD2 TYR A   2      18.334  17.465  56.835  0.00  0.00    -0.001 A 
ATOM     33  CE2 TYR A   2      17.322  16.528  56.878  0.00  0.00    +0.036 A 
ATOM     34  CZ  TYR A   2      17.274  15.522  55.932  0.00  0.00    +0.134 A 
ATOM     35  CE1 TYR A   2      18.245  15.442  54.937  0.00  0.00    +0.036 A 
ATOM     36  CD1 TYR A   2      19.263  16.397  54.905  0.00  0.00    -0.001 A 
BRANCH  34  37
ATOM     37  OH  TYR A   2      16.243  14.614  55.990  0.00  0.00    -0.506 OA
ATOM     38  HH  TYR A   2      16.613  13.703  56.102  0.00  0.00    +0.292 HD
ENDBRANCH  34  37
ENDBRANCH  30  31
ENDBRANCH   1  30
TORSDOF 16
REMARK  Name = ../refined-set-2016/1syi/1syi_pocket.pdb
REMARK  226 active torsions:
REMARK  status: ('A' for Active; 'I' for Inactive)
REMARK    1  A    between atoms: _1  and  _3
REMARK    2  A    between atoms: _3  and  _4
REMARK    3  A    between atoms: _3  and  _6
REMARK    4  A    between atoms: _6  and  _7
REMARK    5  A    between atoms: _10  and  _12
REMARK    6  A    between atoms: _12  and  _13
REMARK    7  A    between atoms: _12  and  _15
REMARK    8  A    between atoms: _15  and  _16
REMARK    9  A    between atoms: _16  and  _17
REMARK   10  A    between atoms: _20  and  _22
REMARK   11  A    between atoms: _22  and  _23
REMARK   12  A    between atoms: _22  and  _25
REMARK   13  A    between atoms: _25  and  _26
REMARK   14  A    between atoms: _29  and  _30
REMARK   15  A    between atoms: _35  and  _37
REMARK   16  A    between atoms: _37  and  _38
REMARK   17  A    between atoms: _37  and  _40
REMARK   18  A    between atoms: _40  and  _41
REMARK   19  A    between atoms: _46  and  _47
REMARK   20  A    between atoms: _49  and  _51
REMARK   21  A    between atoms: _51  and  _52
REMARK   22  A    between atoms: _51  and  _54
REMARK   23  A    between atoms: _54  and  _55
REMARK   24  A    between atoms: _55  and  _56
REMARK   25  A    between atoms: _56  and  _57
REMARK   26  A    between atoms: _57  and  _58
REMARK   27  A    between atoms: _62  and  _64
REMARK   28  A    between atoms: _64  and  _65
REMARK   29  A    between atoms: _64  and  _67
REMARK   30  A    between atoms: _67  and  _68
REMARK   31  A    between atoms: _73  and  _74
REMARK   32  A    between atoms: _76  and  _78
REMARK   33  A    between atoms: _78  and  _79
REMARK   34  A    between atoms: _81  and  _83
REMARK   35  A    between atoms: _83  and  _84
REMARK   36  A    between atoms: _87  and  _89
REMARK   37  A    between atoms: _89  and  _90
REMARK   38  A    between atoms: _89  and  _92
REMARK   39  A    between atoms: _92  and  _93
REMARK   40  A    between atoms: _103  and  _105
REMARK   41  A    between atoms: _105  and  _106
REMARK   42  A    between atoms: _105  and  _108
REMARK   43  A    between atoms: _108  and  _109
REMARK   44  A    between atoms: _109  and  _110
REMARK   45  A    between atoms: _112  and  _114
REMARK   46  A    between atoms: _114  and  _115
REMARK   47  A    between atoms: _114  and  _117
REMARK   48  A    between atoms: _120  and  _122
REMARK   49  A    between atoms: _122  and  _123
REMARK   50  A    between atoms: _127  and  _128
REMARK   51  A    between atoms: _133  and  _135
REMARK   52  A    between atoms: _135  and  _136
REMARK   53  A    between atoms: _135  and  _138
REMARK   54  A    between atoms: _138  and  _139
REMARK   55  A    between atoms: _142  and  _144
REMARK   56  A    between atoms: _144  and  _145
REMARK   57  A    between atoms: _144  and  _147
REMARK   58  A    between atoms: _147  and  _148
REMARK   59  A    between atoms: _151  and  _153
REMARK   60  A    between atoms: _153  and  _154
REMARK   61  A    between atoms: _153  and  _156
REMARK   62  A    between atoms: _156  and  _157
REMARK   63  A    between atoms: _160  and  _162
REMARK   64  A    between atoms: _162  and  _163
REMARK   65  A    between atoms: _162  and  _165
REMARK   66  A    between atoms: _165  and  _166
REMARK   67  A    between atoms: _169  and  _171
REMARK   68  A    between atoms: _171  and  _172
REMARK   69  A    between atoms: _171  and  _174
REMARK   70  A    between atoms: _174  and  _175
REMARK   71  A    between atoms: _175  and  _176
REMARK   72  A    between atoms: _176  and  _177
REMARK   73  A    between atoms: _186  and  _188
REMARK   74  A    between atoms: _188  and  _189
REMARK   75  A    between atoms: _188  and  _191
REMARK   76  A    between atoms: _191  and  _192
REMARK   77  A    between atoms: _198  and  _200
REMARK   78  A    between atoms: _200  and  _201
REMARK   79  A    between atoms: _200  and  _203
REMARK   80  A    between atoms: _203  and  _204
REMARK   81  A    between atoms: _210  and  _212
REMARK   82  A    between atoms: _212  and  _213
REMARK   83  A    between atoms: _212  and  _215
REMARK   84  A    between atoms: _215  and  _216
REMARK   85  A    between atoms: _219  and  _221
REMARK   86  A    between atoms: _221  and  _222
REMARK   87  A    between atoms: _224  and  _226
REMARK   88  A    between atoms: _226  and  _227
REMARK   89  A    between atoms: _226  and  _229
REMARK   90  A    between atoms: _229  and  _230
REMARK   91  A    between atoms: _233  and  _235
REMARK   92  A    between atoms: _235  and  _236
REMARK   93  A    between atoms: _235  and  _238
REMARK   94  A    between atoms: _238  and  _239
REMARK   95  A    between atoms: _241  and  _243
REMARK   96  A    between atoms: _243  and  _244
REMARK   97  A    between atoms: _243  and  _246
REMARK   98  A    between atoms: _246  and  _247
REMARK   99  A    between atoms: _247  and  _248
REMARK  100  A    between atoms: _250  and  _252
REMARK  101  A    between atoms: _252  and  _253
REMARK  102  A    between atoms: _252  and  _255
REMARK  103  A    between atoms: _255  and  _256
REMARK  104  A    between atoms: _259  and  _261
REMARK  105  A    between atoms: _261  and  _262
REMARK  106  A    between atoms: _261  and  _264
REMARK  107  A    between atoms: _264  and  _265
REMARK  108  A    between atoms: _268  and  _270
REMARK  109  A    between atoms: _270  and  _271
REMARK  110  A    between atoms: _270  and  _273
REMARK  111  A    between atoms: _273  and  _274
REMARK  112  A    between atoms: _277  and  _279
REMARK  113  A    between atoms: _279  and  _280
REMARK  114  A    between atoms: _279  and  _282
REMARK  115  A    between atoms: _282  and  _283
REMARK  116  A    between atoms: _285  and  _287
REMARK  117  A    between atoms: _287  and  _288
REMARK  118  A    between atoms: _290  and  _292
REMARK  119  A    between atoms: _292  and  _293
REMARK  120  A    between atoms: _292  and  _295
REMARK  121  A    between atoms: _295  and  _296
REMARK  122  A    between atoms: _298  and  _300
REMARK  123  A    between atoms: _300  and  _301
REMARK  124  A    between atoms: _300  and  _303
REMARK  125  A    between atoms: _303  and  _304
REMARK  126  A    between atoms: _307  and  _309
REMARK  127  A    between atoms: _309  and  _310
REMARK  128  A    between atoms: _309  and  _312
REMARK  129  A    between atoms: _312  and  _313
REMARK  130  A    between atoms: _313  and  _314
REMARK  131  A    between atoms: _314  and  _315
REMARK  132  A    between atoms: _315  and  _316
REMARK  133  A    between atoms: _320  and  _322
REMARK  134  A    between atoms: _322  and  _323
REMARK  135  A    between atoms: _322  and  _325
REMARK  136  A    between atoms: _325  and  _326
REMARK  137  A    between atoms: _326  and  _327
REMARK  138  A    between atoms: _330  and  _332
REMARK  139  A    between atoms: _332  and  _333
REMARK  140  A    between atoms: _332  and  _335
REMARK  141  A    between atoms: _335  and  _336
REMARK  142  A    between atoms: _342  and  _344
REMARK  143  A    between atoms: _344  and  _345
REMARK  144  A    between atoms: _344  and  _347
REMARK  145  A    between atoms: _347  and  _348
REMARK  146  A    between atoms: _354  and  _356
REMARK  147  A    between atoms: _356  and  _357
REMARK  148  A    between atoms: _356  and  _359
REMARK  149  A    between atoms: _362  and  _364
REMARK  150  A    between atoms: _364  and  _365
REMARK  151  A    between atoms: _364  and  _367
REMARK  152  A    between atoms: _367  and  _368
REMARK  153  A    between atoms: _371  and  _373
REMARK  154  A    between atoms: _373  and  _374
REMARK  155  A    between atoms: _373  and  _376
REMARK  156  A    between atoms: _376  and  _377
REMARK  157  A    between atoms: _380  and  _382
REMARK  158  A    between atoms: _382  and  _383
REMARK  159  A    between atoms: _386  and  _388
REMARK  160  A    between atoms: _388  and  _389
REMARK  161  A    between atoms: _391  and  _393
REMARK  162  A    between atoms: _393  and  _394
REMARK  163  A    between atoms: _393  and  _396
REMARK  164  A    between atoms: _399  and  _401
REMARK  165  A    between atoms: _401  and  _402
REMARK  166  A    between atoms: _401  and  _404
REMARK  167  A    between atoms: _404  and  _405
REMARK  168  A    between atoms: _411  and  _413
REMARK  169  A    between atoms: _413  and  _414
REMARK  170  A    between atoms: _413  and  _416
REMARK  171  A    between atoms: _416  and  _417
REMARK  172  A    between atoms: _420  and  _422
REMARK  173  A    between atoms: _422  and  _423
REMARK  174  A    between atoms: _422  and  _425
REMARK  175  A    between atoms: _425  and  _426
REMARK  176  A    between atoms: _429  and  _431
REMARK  177  A    between atoms: _431  and  _432
REMARK  178  A    between atoms: _431  and  _434
REMARK  179  A    between atoms: _434  and  _435
REMARK  180  A    between atoms: _435  and  _436
REMARK  181  A    between atoms: _439  and  _441
REMARK  182  A    between atoms: _441  and  _442
REMARK  183  A    between atoms: _441  and  _444
REMARK  184  A    between atoms: _444  and  _445
REMARK  185  A    between atoms: _447  and  _449
REMARK  186  A    between atoms: _449  and  _450
REMARK  187  A    between atoms: _449  and  _452
REMARK  188  A    between atoms: _452  and  _453
REMARK  189  A    between atoms: _456  and  _458
REMARK  190  A    between atoms: _458  and  _459
REMARK  191  A    between atoms: _458  and  _461
REMARK  192  A    between atoms: _461  and  _462
REMARK  193  A    between atoms: _462  and  _463
REMARK  194  A    between atoms: _465  and  _467
REMARK  195  A    between atoms: _467  and  _468
REMARK  196  A    between atoms: _467  and  _470
REMARK  197  A    between atoms: _470  and  _471
REMARK  198  A    between atoms: _476  and  _478
REMARK  199  A    between atoms: _478  and  _479
REMARK  200  A    between atoms: _478  and  _481
REMARK  201  A    between atoms: _481  and  _482
REMARK  202  A    between atoms: _487  and  _488
REMARK  203  A    between atoms: _490  and  _492
REMARK  204  A    between atoms: _492  and  _493
REMARK  205  A    between atoms: _492  and  _495
REMARK  206  A    between atoms: _495  and  _496
REMARK  207  A    between atoms: _499  and  _501
REMARK  208  A    between atoms: _501  and  _502
REMARK  209  A    between atoms: _501  and  _504
REMARK  210  A    between atoms: _504  and  _505
REMARK  211  A    between atoms: _505  and  _506
REMARK  212  A    between atoms: _506  and  _507
REMARK  213  A    between atoms: _507  and  _508
REMARK  214  A    between atoms: _512  and  _514
REMARK  215  A    between atoms: _514  and  _515
REMARK  216  A    between atoms: _517  and  _519
REMARK  217  A    between atoms: _519  and  _520
REMARK  218  A    between atoms: _519  and  _522
REMARK  219  A    between atoms: _522  and  _523
REMARK  220  A    between atoms: _528  and  _529
REMARK  221  A    between atoms: _531  and  _533
REMARK  222  A    between atoms: _533  and  _534
REMARK  223  A    between atoms: _536  and  _538
REMARK  224  A    between atoms: _538  and  _539
REMARK  225  A    between atoms: _538  and  _541
REMARK  226  A    between atoms: _541  and  _542
REMARK                            x       y       z     vdW  Elec       q    Type
REMARK                         _______ _______ _______ _____ _____    ______ ____
ROOT
ATOM      1  CG  TRP A   1      25.304  28.418  55.537  0.00  0.00    -0.002 A 
ATOM      2  CD2 TRP A   1      25.719  27.308  56.342  0.00  0.00    +0.013 A 
ATOM      3  CE2 TRP A   1      26.731  27.776  57.211  0.00  0.00    +0.056 A 
ATOM      4  CZ2 TRP A   1      27.366  26.940  58.139  0.00  0.00    +0.017 A 
ATOM      5  CH2 TRP A   1      26.974  25.624  58.186  0.00  0.00    +0.001 A 
ATOM      6  CZ3 TRP A   1      25.969  25.126  57.335  0.00  0.00    +0.000 A 
ATOM      7  NE1 TRP A   1      26.917  29.109  56.948  0.00  0.00    -0.352 N 
ATOM      8  HE1 TRP A   1      27.597  29.730  57.430  0.00  0.00    +0.166 HD
ATOM      9  CE3 TRP A   1      25.336  25.960  56.409  0.00  0.00    +0.001 A 
ATOM     10  CD1 TRP A   1      26.058  29.492  55.943  0.00  0.00    +0.068 A 
ENDROOT
BRANCH   1  11
ATOM     11  CB  TRP A   1      24.289  28.385  54.444  0.00  0.00    +0.053 C 
BRANCH  11  12
ATOM     12  CA  TRP A   1      24.827  27.931  53.080  0.00  0.00    +0.137 C 
BRANCH  12  13
ATOM     13  N   TRP A   1      25.526  29.029  52.410  0.00  0.00    -0.239 NA
ATOM     14  H   TRP A   1      25.260  30.009  52.634  0.00  0.00    +0.142 HD
ENDBRANCH  12  13
BRANCH  12  15
ATOM     15  C   TRP A   1      23.651  27.450  52.225  0.00  0.00    +0.224 C 
ATOM     16  O   TRP A   1      22.858  28.265  51.743  0.00  0.00    -0.287 OA
ENDBRANCH  12  15
ENDBRANCH  11  12
ENDBRANCH   1  11
TORSDOF 4
REMARK  Name = ../refined-set-2016/1syi/1syi_pocket.pdb
REMARK  226 active torsions:
REMARK  status: ('A' for Active; 'I' for Inactive)
REMARK    1  A    between atoms: _1  and  _3
REMARK    2  A    between atoms: _3  and  _4
REMARK    3  A    between atoms: _3  and  _6
REMARK    4  A    between atoms: _6  and  _7
REMARK    5  A    between atoms: _10  and  _12
REMARK    6  A    between atoms: _12  and  _13
REMARK    7  A    between atoms: _12  and  _15
REMARK    8  A    between atoms: _15  and  _16
REMARK    9  A    between atoms: _16  and  _17
REMARK   10  A    between atoms: _20  and  _22
REMARK   11  A    between atoms: _22  and  _23
REMARK   12  A    between atoms: _22  and  _25
REMARK   13  A    between atoms: _25  and  _26
REMARK   14  A    between atoms: _29  and  _30
REMARK   15  A    between atoms: _35  and  _37
REMARK   16  A    between atoms: _37  and  _38
REMARK   17  A    between atoms: _37  and  _40
REMARK   18  A    between atoms: _40  and  _41
REMARK   19  A    between atoms: _46  and  _47
REMARK   20  A    between atoms: _49  and  _51
REMARK   21  A    between atoms: _51  and  _52
REMARK   22  A    between atoms: _51  and  _54
REMARK   23  A    between atoms: _54  and  _55
REMARK   24  A    between atoms: _55  and  _56
REMARK   25  A    between atoms: _56  and  _57
REMARK   26  A    between atoms: _57  and  _58
REMARK   27  A    between atoms: _62  and  _64
REMARK   28  A    between atoms: _64  and  _65
REMARK   29  A    between atoms: _64  and  _67
REMARK   30  A    between atoms: _67  and  _68
REMARK   31  A    between atoms: _73  and  _74
REMARK   32  A    between atoms: _76  and  _78
REMARK   33  A    between atoms: _78  and  _79
REMARK   34  A    between atoms: _81  and  _83
REMARK   35  A    between atoms: _83  and  _84
REMARK   36  A    between atoms: _87  and  _89
REMARK   37  A    between atoms: _89  and  _90
REMARK   38  A    between atoms: _89  and  _92
REMARK   39  A    between atoms: _92  and  _93
REMARK   40  A    between atoms: _103  and  _105
REMARK   41  A    between atoms: _105  and  _106
REMARK   42  A    between atoms: _105  and  _108
REMARK   43  A    between atoms: _108  and  _109
REMARK   44  A    between atoms: _109  and  _110
REMARK   45  A    between atoms: _112  and  _114
REMARK   46  A    between atoms: _114  and  _115
REMARK   47  A    between atoms: _114  and  _117
REMARK   48  A    between atoms: _120  and  _122
REMARK   49  A    between atoms: _122  and  _123
REMARK   50  A    between atoms: _127  and  _128
REMARK   51  A    between atoms: _133  and  _135
REMARK   52  A    between atoms: _135  and  _136
REMARK   53  A    between atoms: _135  and  _138
REMARK   54  A    between atoms: _138  and  _139
REMARK   55  A    between atoms: _142  and  _144
REMARK   56  A    between atoms: _144  and  _145
REMARK   57  A    between atoms: _144  and  _147
REMARK   58  A    between atoms: _147  and  _148
REMARK   59  A    between atoms: _151  and  _153
REMARK   60  A    between atoms: _153  and  _154
REMARK   61  A    between atoms: _153  and  _156
REMARK   62  A    between atoms: _156  and  _157
REMARK   63  A    between atoms: _160  and  _162
REMARK   64  A    between atoms: _162  and  _163
REMARK   65  A    between atoms: _162  and  _165
REMARK   66  A    between atoms: _165  and  _166
REMARK   67  A    between atoms: _169  and  _171
REMARK   68  A    between atoms: _171  and  _172
REMARK   69  A    between atoms: _171  and  _174
REMARK   70  A    between atoms: _174  and  _175
REMARK   71  A    between atoms: _175  and  _176
REMARK   72  A    between atoms: _176  and  _177
REMARK   73  A    between atoms: _186  and  _188
REMARK   74  A    between atoms: _188  and  _189
REMARK   75  A    between atoms: _188  and  _191
REMARK   76  A    between atoms: _191  and  _192
REMARK   77  A    between atoms: _198  and  _200
REMARK   78  A    between atoms: _200  and  _201
REMARK   79  A    between atoms: _200  and  _203
REMARK   80  A    between atoms: _203  and  _204
REMARK   81  A    between atoms: _210  and  _212
REMARK   82  A    between atoms: _212  and  _213
REMARK   83  A    between atoms: _212  and  _215
REMARK   84  A    between atoms: _215  and  _216
REMARK   85  A    between atoms: _219  and  _221
REMARK   86  A    between atoms: _221  and  _222
REMARK   87  A    between atoms: _224  and  _226
REMARK   88  A    between atoms: _226  and  _227
REMARK   89  A    between atoms: _226  and  _229
REMARK   90  A    between atoms: _229  and  _230
REMARK   91  A    between atoms: _233  and  _235
REMARK   92  A    between atoms: _235  and  _236
REMARK   93  A    between atoms: _235  and  _238
REMARK   94  A    between atoms: _238  and  _239
REMARK   95  A    between atoms: _241  and  _243
REMARK   96  A    between atoms: _243  and  _244
REMARK   97  A    between atoms: _243  and  _246
REMARK   98  A    between atoms: _246  and  _247
REMARK   99  A    between atoms: _247  and  _248
REMARK  100  A    between atoms: _250  and  _252
REMARK  101  A    between atoms: _252  and  _253
REMARK  102  A    between atoms: _252  and  _255
REMARK  103  A    between atoms: _255  and  _256
REMARK  104  A    between atoms: _259  and  _261
REMARK  105  A    between atoms: _261  and  _262
REMARK  106  A    between atoms: _261  and  _264
REMARK  107  A    between atoms: _264  and  _265
REMARK  108  A    between atoms: _268  and  _270
REMARK  109  A    between atoms: _270  and  _271
REMARK  110  A    between atoms: _270  and  _273
REMARK  111  A    between atoms: _273  and  _274
REMARK  112  A    between atoms: _277  and  _279
REMARK  113  A    between atoms: _279  and  _280
REMARK  114  A    between atoms: _279  and  _282
REMARK  115  A    between atoms: _282  and  _283
REMARK  116  A    between atoms: _285  and  _287
REMARK  117  A    between atoms: _287  and  _288
REMARK  118  A    between atoms: _290  and  _292
REMARK  119  A    between atoms: _292  and  _293
REMARK  120  A    between atoms: _292  and  _295
REMARK  121  A    between atoms: _295  and  _296
REMARK  122  A    between atoms: _298  and  _300
REMARK  123  A    between atoms: _300  and  _301
REMARK  124  A    between atoms: _300  and  _303
REMARK  125  A    between atoms: _303  and  _304
REMARK  126  A    between atoms: _307  and  _309
REMARK  127  A    between atoms: _309  and  _310
REMARK  128  A    between atoms: _309  and  _312
REMARK  129  A    between atoms: _312  and  _313
REMARK  130  A    between atoms: _313  and  _314
REMARK  131  A    between atoms: _314  and  _315
REMARK  132  A    between atoms: _315  and  _316
REMARK  133  A    between atoms: _320  and  _322
REMARK  134  A    between atoms: _322  and  _323
REMARK  135  A    between atoms: _322  and  _325
REMARK  136  A    between atoms: _325  and  _326
REMARK  137  A    between atoms: _326  and  _327
REMARK  138  A    between atoms: _330  and  _332
REMARK  139  A    between atoms: _332  and  _333
REMARK  140  A    between atoms: _332  and  _335
REMARK  141  A    between atoms: _335  and  _336
REMARK  142  A    between atoms: _342  and  _344
REMARK  143  A    between atoms: _344  and  _345
REMARK  144  A    between atoms: _344  and  _347
REMARK  145  A    between atoms: _347  and  _348
REMARK  146  A    between atoms: _354  and  _356
REMARK  147  A    between atoms: _356  and  _357
REMARK  148  A    between atoms: _356  and  _359
REMARK  149  A    between atoms: _362  and  _364
REMARK  150  A    between atoms: _364  and  _365
REMARK  151  A    between atoms: _364  and  _367
REMARK  152  A    between atoms: _367  and  _368
REMARK  153  A    between atoms: _371  and  _373
REMARK  154  A    between atoms: _373  and  _374
REMARK  155  A    between atoms: _373  and  _376
REMARK  156  A    between atoms: _376  and  _377
REMARK  157  A    between atoms: _380  and  _382
REMARK  158  A    between atoms: _382  and  _383
REMARK  159  A    between atoms: _386  and  _388
REMARK  160  A    between atoms: _388  and  _389
REMARK  161  A    between atoms: _391  and  _393
REMARK  162  A    between atoms: _393  and  _394
REMARK  163  A    between atoms: _393  and  _396
REMARK  164  A    between atoms: _399  and  _401
REMARK  165  A    between atoms: _401  and  _402
REMARK  166  A    between atoms: _401  and  _404
REMARK  167  A    between atoms: _404  and  _405
REMARK  168  A    between atoms: _411  and  _413
REMARK  169  A    between atoms: _413  and  _414
REMARK  170  A    between atoms: _413  and  _416
REMARK  171  A    between atoms: _416  and  _417
REMARK  172  A    between atoms: _420  and  _422
REMARK  173  A    between atoms: _422  and  _423
REMARK  174  A    between atoms: _422  and  _425
REMARK  175  A    between atoms: _425  and  _426
REMARK  176  A    between atoms: _429  and  _431
REMARK  177  A    between atoms: _431  and  _432
REMARK  178  A    between atoms: _431  and  _434
REMARK  179  A    between atoms: _434  and  _435
REMARK  180  A    between atoms: _435  and  _436
REMARK  181  A    between atoms: _439  and  _441
REMARK  182  A    between atoms: _441  and  _442
REMARK  183  A    between atoms: _441  and  _444
REMARK  184  A    between atoms: _444  and  _445
REMARK  185  A    between atoms: _447  and  _449
REMARK  186  A    between atoms: _449  and  _450
REMARK  187  A    between atoms: _449  and  _452
REMARK  188  A    between atoms: _452  and  _453
REMARK  189  A    between atoms: _456  and  _458
REMARK  190  A    between atoms: _458  and  _459
REMARK  191  A    between atoms: _458  and  _461
REMARK  192  A    between atoms: _461  and  _462
REMARK  193  A    between atoms: _462  and  _463
REMARK  194  A    between atoms: _465  and  _467
REMARK  195  A    between atoms: _467  and  _468
REMARK  196  A    between atoms: _467  and  _470
REMARK  197  A    between atoms: _470  and  _471
REMARK  198  A    between atoms: _476  and  _478
REMARK  199  A    between atoms: _478  and  _479
REMARK  200  A    between atoms: _478  and  _481
REMARK  201  A    between atoms: _481  and  _482
REMARK  202  A    between atoms: _487  and  _488
REMARK  203  A    between atoms: _490  and  _492
REMARK  204  A    between atoms: _492  and  _493
REMARK  205  A    between atoms: _492  and  _495
REMARK  206  A    between atoms: _495  and  _496
REMARK  207  A    between atoms: _499  and  _501
REMARK  208  A    between atoms: _501  and  _502
REMARK  209  A    between atoms: _501  and  _504
REMARK  210  A    between atoms: _504  and  _505
REMARK  211  A    between atoms: _505  and  _506
REMARK  212  A    between atoms: _506  and  _507
REMARK  213  A    between atoms: _507  and  _508
REMARK  214  A    between atoms: _512  and  _514
REMARK  215  A    between atoms: _514  and  _515
REMARK  216  A    between atoms: _517  and  _519
REMARK  217  A    between atoms: _519  and  _520
REMARK  218  A    between atoms: _519  and  _522
REMARK  219  A    between atoms: _522  and  _523
REMARK  220  A    between atoms: _528  and  _529
REMARK  221  A    between atoms: _531  and  _533
REMARK  222  A    between atoms: _533  and  _534
REMARK  223  A    between atoms: _536  and  _538
REMARK  224  A    between atoms: _538  and  _539
REMARK  225  A    between atoms: _538  and  _541
REMARK  226  A    between atoms: _541  and  _542
REMARK                            x       y       z     vdW  Elec       q    Type
REMARK                         _______ _______ _______ _____ _____    ______ ____
ROOT
ATOM      1  C   MET A   1      17.922  25.257  56.057  0.00  0.00    +0.238 C 
ATOM      2  O   MET A   1      17.344  26.267  56.472  0.00  0.00    -0.274 OA
ATOM      3  N   VAL A   2      19.189  24.990  56.347  0.00  0.00    -0.298 N 
ATOM      4  H   VAL A   2      19.629  24.112  56.004  0.00  0.00    +0.150 HD
ENDROOT
BRANCH   1   5
ATOM      5  CA  MET A   1      17.182  24.238  55.193  0.00  0.00    +0.146 C 
BRANCH   5   6
ATOM      6  N   MET A   1      18.055  23.577  54.234  0.00  0.00    -0.238 NA
ATOM      7  H   MET A   1      18.223  22.555  54.325  0.00  0.00    +0.142 HD
ENDBRANCH   5   6
BRANCH   5   8
ATOM      8  CB  MET A   1      16.503  23.201  56.084  0.00  0.00    +0.038 C 
BRANCH   8   9
ATOM      9  CG  MET A   1      15.475  22.340  55.354  0.00  0.00    +0.060 C 
BRANCH   9  10
ATOM     10  SD  MET A   1      14.867  21.005  56.403  0.00  0.00    -0.139 S 
ATOM     11  CE  MET A   1      16.100  19.745  56.044  0.00  0.00    +0.069 C 
ENDBRANCH   9  10
ENDBRANCH   8   9
ENDBRANCH   5   8
ENDBRANCH   1   5
BRANCH   3  12
ATOM     12  CA  VAL A   2      19.959  25.927  57.145  0.00  0.00    +0.137 C 
BRANCH  12  13
ATOM     13  CB  VAL A   2      21.380  25.406  57.434  0.00  0.00    +0.026 C 
ATOM     14  CG2 VAL A   2      22.140  26.423  58.320  0.00  0.00    +0.002 C 
ATOM     15  CG1 VAL A   2      21.303  24.053  58.130  0.00  0.00    +0.002 C 
ENDBRANCH  12  13
BRANCH  12  16
ATOM     16  C   VAL A   2      20.029  27.227  56.348  0.00  0.00    +0.227 C 
ATOM     17  O   VAL A   2      19.728  28.301  56.865  0.00  0.00    -0.286 OA
ENDBRANCH  12  16
ENDBRANCH   3  12
TORSDOF 8
REMARK  Name = ../refined-set-2016/1syi/1syi_pocket.pdb
REMARK  226 active torsions:
REMARK  status: ('A' for Active; 'I' for Inactive)
REMARK    1  A    between atoms: _1  and  _3
REMARK    2  A    between atoms: _3  and  _4
REMARK    3  A    between atoms: _3  and  _6
REMARK    4  A    between atoms: _6  and  _7
REMARK    5  A    between atoms: _10  and  _12
REMARK    6  A    between atoms: _12  and  _13
REMARK    7  A    between atoms: _12  and  _15
REMARK    8  A    between atoms: _15  and  _16
REMARK    9  A    between atoms: _16  and  _17
REMARK   10  A    between atoms: _20  and  _22
REMARK   11  A    between atoms: _22  and  _23
REMARK   12  A    between atoms: _22  and  _25
REMARK   13  A    between atoms: _25  and  _26
REMARK   14  A    between atoms: _29  and  _30
REMARK   15  A    between atoms: _35  and  _37
REMARK   16  A    between atoms: _37  and  _38
REMARK   17  A    between atoms: _37  and  _40
REMARK   18  A    between atoms: _40  and  _41
REMARK   19  A    between atoms: _46  and  _47
REMARK   20  A    between atoms: _49  and  _51
REMARK   21  A    between atoms: _51  and  _52
REMARK   22  A    between atoms: _51  and  _54
REMARK   23  A    between atoms: _54  and  _55
REMARK   24  A    between atoms: _55  and  _56
REMARK   25  A    between atoms: _56  and  _57
REMARK   26  A    between atoms: _57  and  _58
REMARK   27  A    between atoms: _62  and  _64
REMARK   28  A    between atoms: _64  and  _65
REMARK   29  A    between atoms: _64  and  _67
REMARK   30  A    between atoms: _67  and  _68
REMARK   31  A    between atoms: _73  and  _74
REMARK   32  A    between atoms: _76  and  _78
REMARK   33  A    between atoms: _78  and  _79
REMARK   34  A    between atoms: _81  and  _83
REMARK   35  A    between atoms: _83  and  _84
REMARK   36  A    between atoms: _87  and  _89
REMARK   37  A    between atoms: _89  and  _90
REMARK   38  A    between atoms: _89  and  _92
REMARK   39  A    between atoms: _92  and  _93
REMARK   40  A    between atoms: _103  and  _105
REMARK   41  A    between atoms: _105  and  _106
REMARK   42  A    between atoms: _105  and  _108
REMARK   43  A    between atoms: _108  and  _109
REMARK   44  A    between atoms: _109  and  _110
REMARK   45  A    between atoms: _112  and  _114
REMARK   46  A    between atoms: _114  and  _115
REMARK   47  A    between atoms: _114  and  _117
REMARK   48  A    between atoms: _120  and  _122
REMARK   49  A    between atoms: _122  and  _123
REMARK   50  A    between atoms: _127  and  _128
REMARK   51  A    between atoms: _133  and  _135
REMARK   52  A    between atoms: _135  and  _136
REMARK   53  A    between atoms: _135  and  _138
REMARK   54  A    between atoms: _138  and  _139
REMARK   55  A    between atoms: _142  and  _144
REMARK   56  A    between atoms: _144  and  _145
REMARK   57  A    between atoms: _144  and  _147
REMARK   58  A    between atoms: _147  and  _148
REMARK   59  A    between atoms: _151  and  _153
REMARK   60  A    between atoms: _153  and  _154
REMARK   61  A    between atoms: _153  and  _156
REMARK   62  A    between atoms: _156  and  _157
REMARK   63  A    between atoms: _160  and  _162
REMARK   64  A    between atoms: _162  and  _163
REMARK   65  A    between atoms: _162  and  _165
REMARK   66  A    between atoms: _165  and  _166
REMARK   67  A    between atoms: _169  and  _171
REMARK   68  A    between atoms: _171  and  _172
REMARK   69  A    between atoms: _171  and  _174
REMARK   70  A    between atoms: _174  and  _175
REMARK   71  A    between atoms: _175  and  _176
REMARK   72  A    between atoms: _176  and  _177
REMARK   73  A    between atoms: _186  and  _188
REMARK   74  A    between atoms: _188  and  _189
REMARK   75  A    between atoms: _188  and  _191
REMARK   76  A    between atoms: _191  and  _192
REMARK   77  A    between atoms: _198  and  _200
REMARK   78  A    between atoms: _200  and  _201
REMARK   79  A    between atoms: _200  and  _203
REMARK   80  A    between atoms: _203  and  _204
REMARK   81  A    between atoms: _210  and  _212
REMARK   82  A    between atoms: _212  and  _213
REMARK   83  A    between atoms: _212  and  _215
REMARK   84  A    between atoms: _215  and  _216
REMARK   85  A    between atoms: _219  and  _221
REMARK   86  A    between atoms: _221  and  _222
REMARK   87  A    between atoms: _224  and  _226
REMARK   88  A    between atoms: _226  and  _227
REMARK   89  A    between atoms: _226  and  _229
REMARK   90  A    between atoms: _229  and  _230
REMARK   91  A    between atoms: _233  and  _235
REMARK   92  A    between atoms: _235  and  _236
REMARK   93  A    between atoms: _235  and  _238
REMARK   94  A    between atoms: _238  and  _239
REMARK   95  A    between atoms: _241  and  _243
REMARK   96  A    between atoms: _243  and  _244
REMARK   97  A    between atoms: _243  and  _246
REMARK   98  A    between atoms: _246  and  _247
REMARK   99  A    between atoms: _247  and  _248
REMARK  100  A    between atoms: _250  and  _252
REMARK  101  A    between atoms: _252  and  _253
REMARK  102  A    between atoms: _252  and  _255
REMARK  103  A    between atoms: _255  and  _256
REMARK  104  A    between atoms: _259  and  _261
REMARK  105  A    between atoms: _261  and  _262
REMARK  106  A    between atoms: _261  and  _264
REMARK  107  A    between atoms: _264  and  _265
REMARK  108  A    between atoms: _268  and  _270
REMARK  109  A    between atoms: _270  and  _271
REMARK  110  A    between atoms: _270  and  _273
REMARK  111  A    between atoms: _273  and  _274
REMARK  112  A    between atoms: _277  and  _279
REMARK  113  A    between atoms: _279  and  _280
REMARK  114  A    between atoms: _279  and  _282
REMARK  115  A    between atoms: _282  and  _283
REMARK  116  A    between atoms: _285  and  _287
REMARK  117  A    between atoms: _287  and  _288
REMARK  118  A    between atoms: _290  and  _292
REMARK  119  A    between atoms: _292  and  _293
REMARK  120  A    between atoms: _292  and  _295
REMARK  121  A    between atoms: _295  and  _296
REMARK  122  A    between atoms: _298  and  _300
REMARK  123  A    between atoms: _300  and  _301
REMARK  124  A    between atoms: _300  and  _303
REMARK  125  A    between atoms: _303  and  _304
REMARK  126  A    between atoms: _307  and  _309
REMARK  127  A    between atoms: _309  and  _310
REMARK  128  A    between atoms: _309  and  _312
REMARK  129  A    between atoms: _312  and  _313
REMARK  130  A    between atoms: _313  and  _314
REMARK  131  A    between atoms: _314  and  _315
REMARK  132  A    between atoms: _315  and  _316
REMARK  133  A    between atoms: _320  and  _322
REMARK  134  A    between atoms: _322  and  _323
REMARK  135  A    between atoms: _322  and  _325
REMARK  136  A    between atoms: _325  and  _326
REMARK  137  A    between atoms: _326  and  _327
REMARK  138  A    between atoms: _330  and  _332
REMARK  139  A    between atoms: _332  and  _333
REMARK  140  A    between atoms: _332  and  _335
REMARK  141  A    between atoms: _335  and  _336
REMARK  142  A    between atoms: _342  and  _344
REMARK  143  A    between atoms: _344  and  _345
REMARK  144  A    between atoms: _344  and  _347
REMARK  145  A    between atoms: _347  and  _348
REMARK  146  A    between atoms: _354  and  _356
REMARK  147  A    between atoms: _356  and  _357
REMARK  148  A    between atoms: _356  and  _359
REMARK  149  A    between atoms: _362  and  _364
REMARK  150  A    between atoms: _364  and  _365
REMARK  151  A    between atoms: _364  and  _367
REMARK  152  A    between atoms: _367  and  _368
REMARK  153  A    between atoms: _371  and  _373
REMARK  154  A    between atoms: _373  and  _374
REMARK  155  A    between atoms: _373  and  _376
REMARK  156  A    between atoms: _376  and  _377
REMARK  157  A    between atoms: _380  and  _382
REMARK  158  A    between atoms: _382  and  _383
REMARK  159  A    between atoms: _386  and  _388
REMARK  160  A    between atoms: _388  and  _389
REMARK  161  A    between atoms: _391  and  _393
REMARK  162  A    between atoms: _393  and  _394
REMARK  163  A    between atoms: _393  and  _396
REMARK  164  A    between atoms: _399  and  _401
REMARK  165  A    between atoms: _401  and  _402
REMARK  166  A    between atoms: _401  and  _404
REMARK  167  A    between atoms: _404  and  _405
REMARK  168  A    between atoms: _411  and  _413
REMARK  169  A    between atoms: _413  and  _414
REMARK  170  A    between atoms: _413  and  _416
REMARK  171  A    between atoms: _416  and  _417
REMARK  172  A    between atoms: _420  and  _422
REMARK  173  A    between atoms: _422  and  _423
REMARK  174  A    between atoms: _422  and  _425
REMARK  175  A    between atoms: _425  and  _426
REMARK  176  A    between atoms: _429  and  _431
REMARK  177  A    between atoms: _431  and  _432
REMARK  178  A    between atoms: _431  and  _434
REMARK  179  A    between atoms: _434  and  _435
REMARK  180  A    between atoms: _435  and  _436
REMARK  181  A    between atoms: _439  and  _441
REMARK  182  A    between atoms: _441  and  _442
REMARK  183  A    between atoms: _441  and  _444
REMARK  184  A    between atoms: _444  and  _445
REMARK  185  A    between atoms: _447  and  _449
REMARK  186  A    between atoms: _449  and  _450
REMARK  187  A    between atoms: _449  and  _452
REMARK  188  A    between atoms: _452  and  _453
REMARK  189  A    between atoms: _456  and  _458
REMARK  190  A    between atoms: _458  and  _459
REMARK  191  A    between atoms: _458  and  _461
REMARK  192  A    between atoms: _461  and  _462
REMARK  193  A    between atoms: _462  and  _463
REMARK  194  A    between atoms: _465  and  _467
REMARK  195  A    between atoms: _467  and  _468
REMARK  196  A    between atoms: _467  and  _470
REMARK  197  A    between atoms: _470  and  _471
REMARK  198  A    between atoms: _476  and  _478
REMARK  199  A    between atoms: _478  and  _479
REMARK  200  A    between atoms: _478  and  _481
REMARK  201  A    between atoms: _481  and  _482
REMARK  202  A    between atoms: _487  and  _488
REMARK  203  A    between atoms: _490  and  _492
REMARK  204  A    between atoms: _492  and  _493
REMARK  205  A    between atoms: _492  and  _495
REMARK  206  A    between atoms: _495  and  _496
REMARK  207  A    between atoms: _499  and  _501
REMARK  208  A    between atoms: _501  and  _502
REMARK  209  A    between atoms: _501  and  _504
REMARK  210  A    between atoms: _504  and  _505
REMARK  211  A    between atoms: _505  and  _506
REMARK  212  A    between atoms: _506  and  _507
REMARK  213  A    between atoms: _507  and  _508
REMARK  214  A    between atoms: _512  and  _514
REMARK  215  A    between atoms: _514  and  _515
REMARK  216  A    between atoms: _517  and  _519
REMARK  217  A    between atoms: _519  and  _520
REMARK  218  A    between atoms: _519  and  _522
REMARK  219  A    between atoms: _522  and  _523
REMARK  220  A    between atoms: _528  and  _529
REMARK  221  A    between atoms: _531  and  _533
REMARK  222  A    between atoms: _533  and  _534
REMARK  223  A    between atoms: _536  and  _538
REMARK  224  A    between atoms: _538  and  _539
REMARK  225  A    between atoms: _538  and  _541
REMARK  226  A    between atoms: _541  and  _542
REMARK                            x       y       z     vdW  Elec       q    Type
REMARK                         _______ _______ _______ _____ _____    ______ ____
ROOT
ATOM      1  CA  THR A   4      21.100  17.437  63.314  0.00  0.00    +0.176 C 
ENDROOT
BRANCH   1   4
ATOM      2  C   LEU A   3      18.922  18.118  62.486  0.00  0.00    +0.241 C 
ATOM      3  O   LEU A   3      18.532  18.404  63.617  0.00  0.00    -0.273 OA
ATOM      4  N   THR A   4      20.145  17.669  62.240  0.00  0.00    -0.295 N 
ATOM      5  H   THR A   4      20.428  17.478  61.258  0.00  0.00    +0.150 HD
BRANCH   2   6
ATOM      6  CA  LEU A   3      18.012  18.283  61.275  0.00  0.00    +0.149 C 
BRANCH   6   8
ATOM      7  C   PRO A   2      16.698  16.254  60.861  0.00  0.00    +0.241 C 
ATOM      8  N   LEU A   3      16.817  17.458  61.418  0.00  0.00    -0.297 N 
ATOM      9  H   LEU A   3      16.023  17.826  61.980  0.00  0.00    +0.150 HD
ATOM     10  O   PRO A   2      17.588  15.724  60.186  0.00  0.00    -0.273 OA
BRANCH   7  14
ATOM     11  C   ALA A   1      13.927  17.524  60.900  0.00  0.00    +0.241 C 
ATOM     12  O   ALA A   1      14.393  17.998  61.938  0.00  0.00    -0.273 OA
ATOM     13  N   PRO A   2      14.331  16.337  60.411  0.00  0.00    -0.272 N 
ATOM     14  CA  PRO A   2      15.358  15.554  61.097  0.00  0.00    +0.152 C 
ATOM     15  CB  PRO A   2      15.275  14.199  60.397  0.00  0.00    +0.031 C 
ATOM     16  CG  PRO A   2      14.934  14.594  58.989  0.00  0.00    +0.024 C 
ATOM     17  CD  PRO A   2      13.842  15.614  59.220  0.00  0.00    +0.094 C 
BRANCH  11  18
ATOM     18  CA  ALA A   1      12.866  18.284  60.112  0.00  0.00    +0.145 C 
ATOM     19  CB  ALA A   1      13.427  18.639  58.730  0.00  0.00    +0.028 C 
BRANCH  18  20
ATOM     20  N   ALA A   1      12.492  19.515  60.800  0.00  0.00    -0.238 NA
ATOM     21  H   ALA A   1      13.176  19.942  61.456  0.00  0.00    +0.142 HD
ENDBRANCH  18  20
ENDBRANCH  11  18
ENDBRANCH   7  14
ENDBRANCH   6   8
BRANCH   6  22
ATOM     22  CB  LEU A   3      17.602  19.748  61.134  0.00  0.00    +0.029 C 
BRANCH  22  23
ATOM     23  CG  LEU A   3      18.651  20.775  60.714  0.00  0.00    +0.002 C 
ATOM     24  CD2 LEU A   3      18.011  22.152  60.685  0.00  0.00    +0.000 C 
ATOM     25  CD1 LEU A   3      19.212  20.408  59.352  0.00  0.00    +0.000 C 
ENDBRANCH  22  23
ENDBRANCH   6  22
ENDBRANCH   2   6
ENDBRANCH   1   4
BRANCH   1  26
ATOM     26  C   THR A   4      21.741  18.705  63.879  0.00  0.00    +0.243 C 
ATOM     27  N   ILE A   5      21.827  18.758  65.205  0.00  0.00    -0.297 N 
ATOM     28  H   ILE A   5      21.439  17.971  65.763  0.00  0.00    +0.150 HD
ATOM     29  O   THR A   4      22.137  19.603  63.145  0.00  0.00    -0.273 OA
BRANCH  27  30
ATOM     30  CA  ILE A   5      22.443  19.875  65.904  0.00  0.00    +0.149 C 
BRANCH  30  31
ATOM     31  C   ILE A   5      23.952  19.704  65.784  0.00  0.00    +0.241 C 
ATOM     32  O   ILE A   5      24.508  18.726  66.283  0.00  0.00    -0.273 OA
ATOM     33  N   THR A   6      24.616  20.634  65.105  0.00  0.00    -0.296 N 
ATOM     34  H   THR A   6      24.100  21.431  64.681  0.00  0.00    +0.150 HD
BRANCH  33  35
ATOM     35  CA  THR A   6      26.061  20.543  64.952  0.00  0.00    +0.164 C 
BRANCH  35  36
ATOM     36  CB  THR A   6      26.464  20.159  63.510  0.00  0.00    +0.136 C 
ATOM     37  CG2 THR A   6      25.722  18.891  63.059  0.00  0.00    +0.034 C 
BRANCH  36  38
ATOM     38  OG1 THR A   6      26.150  21.241  62.626  0.00  0.00    -0.382 OA
ATOM     39  HG1 THR A   6      26.408  20.996  61.702  0.00  0.00    +0.210 HD
ENDBRANCH  36  38
ENDBRANCH  35  36
BRANCH  35  40
ATOM     40  C   THR A   6      26.687  21.887  65.295  0.00  0.00    +0.229 C 
ATOM     41  O   THR A   6      26.019  22.926  65.260  0.00  0.00    -0.286 OA
ENDBRANCH  35  40
ENDBRANCH  33  35
ENDBRANCH  30  31
BRANCH  30  42
ATOM     42  CB  ILE A   5      22.078  19.860  67.402  0.00  0.00    +0.027 C 
ATOM     43  CG2 ILE A   5      22.835  20.969  68.136  0.00  0.00    +0.002 C 
BRANCH  42  44
ATOM     44  CG1 ILE A   5      20.564  20.013  67.567  0.00  0.00    +0.002 C 
ATOM     45  CD1 ILE A   5      20.067  19.622  68.923  0.00  0.00    +0.000 C 
ENDBRANCH  42  44
ENDBRANCH  30  42
ENDBRANCH  27  30
ENDBRANCH   1  26
BRANCH   1  46
ATOM     46  CB  THR A   4      22.220  16.473  62.849  0.00  0.00    +0.137 C 
ATOM     47  CG2 THR A   4      23.117  16.086  64.022  0.00  0.00    +0.034 C 
BRANCH  46  48
ATOM     48  OG1 THR A   4      21.632  15.284  62.302  0.00  0.00    -0.382 OA
ATOM     49  HG1 THR A   4      22.349  14.669  62.005  0.00  0.00    +0.210 HD
ENDBRANCH  46  48
ENDBRANCH   1  46
TORSDOF 19
REMARK  Name = ../refined-set-2016/1syi/1syi_pocket.pdb
REMARK  226 active torsions:
REMARK  status: ('A' for Active; 'I' for Inactive)
REMARK    1  A    between atoms: _1  and  _3
REMARK    2  A    between atoms: _3  and  _4
REMARK    3  A    between atoms: _3  and  _6
REMARK    4  A    between atoms: _6  and  _7
REMARK    5  A    between atoms: _10  and  _12
REMARK    6  A    between atoms: _12  and  _13
REMARK    7  A    between atoms: _12  and  _15
REMARK    8  A    between atoms: _15  and  _16
REMARK    9  A    between atoms: _16  and  _17
REMARK   10  A    between atoms: _20  and  _22
REMARK   11  A    between atoms: _22  and  _23
REMARK   12  A    between atoms: _22  and  _25
REMARK   13  A    between atoms: _25  and  _26
REMARK   14  A    between atoms: _29  and  _30
REMARK   15  A    between atoms: _35  and  _37
REMARK   16  A    between atoms: _37  and  _38
REMARK   17  A    between atoms: _37  and  _40
REMARK   18  A    between atoms: _40  and  _41
REMARK   19  A    between atoms: _46  and  _47
REMARK   20  A    between atoms: _49  and  _51
REMARK   21  A    between atoms: _51  and  _52
REMARK   22  A    between atoms: _51  and  _54
REMARK   23  A    between atoms: _54  and  _55
REMARK   24  A    between atoms: _55  and  _56
REMARK   25  A    between atoms: _56  and  _57
REMARK   26  A    between atoms: _57  and  _58
REMARK   27  A    between atoms: _62  and  _64
REMARK   28  A    between atoms: _64  and  _65
REMARK   29  A    between atoms: _64  and  _67
REMARK   30  A    between atoms: _67  and  _68
REMARK   31  A    between atoms: _73  and  _74
REMARK   32  A    between atoms: _76  and  _78
REMARK   33  A    between atoms: _78  and  _79
REMARK   34  A    between atoms: _81  and  _83
REMARK   35  A    between atoms: _83  and  _84
REMARK   36  A    between atoms: _87  and  _89
REMARK   37  A    between atoms: _89  and  _90
REMARK   38  A    between atoms: _89  and  _92
REMARK   39  A    between atoms: _92  and  _93
REMARK   40  A    between atoms: _103  and  _105
REMARK   41  A    between atoms: _105  and  _106
REMARK   42  A    between atoms: _105  and  _108
REMARK   43  A    between atoms: _108  and  _109
REMARK   44  A    between atoms: _109  and  _110
REMARK   45  A    between atoms: _112  and  _114
REMARK   46  A    between atoms: _114  and  _115
REMARK   47  A    between atoms: _114  and  _117
REMARK   48  A    between atoms: _120  and  _122
REMARK   49  A    between atoms: _122  and  _123
REMARK   50  A    between atoms: _127  and  _128
REMARK   51  A    between atoms: _133  and  _135
REMARK   52  A    between atoms: _135  and  _136
REMARK   53  A    between atoms: _135  and  _138
REMARK   54  A    between atoms: _138  and  _139
REMARK   55  A    between atoms: _142  and  _144
REMARK   56  A    between atoms: _144  and  _145
REMARK   57  A    between atoms: _144  and  _147
REMARK   58  A    between atoms: _147  and  _148
REMARK   59  A    between atoms: _151  and  _153
REMARK   60  A    between atoms: _153  and  _154
REMARK   61  A    between atoms: _153  and  _156
REMARK   62  A    between atoms: _156  and  _157
REMARK   63  A    between atoms: _160  and  _162
REMARK   64  A    between atoms: _162  and  _163
REMARK   65  A    between atoms: _162  and  _165
REMARK   66  A    between atoms: _165  and  _166
REMARK   67  A    between atoms: _169  and  _171
REMARK   68  A    between atoms: _171  and  _172
REMARK   69  A    between atoms: _171  and  _174
REMARK   70  A    between atoms: _174  and  _175
REMARK   71  A    between atoms: _175  and  _176
REMARK   72  A    between atoms: _176  and  _177
REMARK   73  A    between atoms: _186  and  _188
REMARK   74  A    between atoms: _188  and  _189
REMARK   75  A    between atoms: _188  and  _191
REMARK   76  A    between atoms: _191  and  _192
REMARK   77  A    between atoms: _198  and  _200
REMARK   78  A    between atoms: _200  and  _201
REMARK   79  A    between atoms: _200  and  _203
REMARK   80  A    between atoms: _203  and  _204
REMARK   81  A    between atoms: _210  and  _212
REMARK   82  A    between atoms: _212  and  _213
REMARK   83  A    between atoms: _212  and  _215
REMARK   84  A    between atoms: _215  and  _216
REMARK   85  A    between atoms: _219  and  _221
REMARK   86  A    between atoms: _221  and  _222
REMARK   87  A    between atoms: _224  and  _226
REMARK   88  A    between atoms: _226  and  _227
REMARK   89  A    between atoms: _226  and  _229
REMARK   90  A    between atoms: _229  and  _230
REMARK   91  A    between atoms: _233  and  _235
REMARK   92  A    between atoms: _235  and  _236
REMARK   93  A    between atoms: _235  and  _238
REMARK   94  A    between atoms: _238  and  _239
REMARK   95  A    between atoms: _241  and  _243
REMARK   96  A    between atoms: _243  and  _244
REMARK   97  A    between atoms: _243  and  _246
REMARK   98  A    between atoms: _246  and  _247
REMARK   99  A    between atoms: _247  and  _248
REMARK  100  A    between atoms: _250  and  _252
REMARK  101  A    between atoms: _252  and  _253
REMARK  102  A    between atoms: _252  and  _255
REMARK  103  A    between atoms: _255  and  _256
REMARK  104  A    between atoms: _259  and  _261
REMARK  105  A    between atoms: _261  and  _262
REMARK  106  A    between atoms: _261  and  _264
REMARK  107  A    between atoms: _264  and  _265
REMARK  108  A    between atoms: _268  and  _270
REMARK  109  A    between atoms: _270  and  _271
REMARK  110  A    between atoms: _270  and  _273
REMARK  111  A    between atoms: _273  and  _274
REMARK  112  A    between atoms: _277  and  _279
REMARK  113  A    between atoms: _279  and  _280
REMARK  114  A    between atoms: _279  and  _282
REMARK  115  A    between atoms: _282  and  _283
REMARK  116  A    between atoms: _285  and  _287
REMARK  117  A    between atoms: _287  and  _288
REMARK  118  A    between atoms: _290  and  _292
REMARK  119  A    between atoms: _292  and  _293
REMARK  120  A    between atoms: _292  and  _295
REMARK  121  A    between atoms: _295  and  _296
REMARK  122  A    between atoms: _298  and  _300
REMARK  123  A    between atoms: _300  and  _301
REMARK  124  A    between atoms: _300  and  _303
REMARK  125  A    between atoms: _303  and  _304
REMARK  126  A    between atoms: _307  and  _309
REMARK  127  A    between atoms: _309  and  _310
REMARK  128  A    between atoms: _309  and  _312
REMARK  129  A    between atoms: _312  and  _313
REMARK  130  A    between atoms: _313  and  _314
REMARK  131  A    between atoms: _314  and  _315
REMARK  132  A    between atoms: _315  and  _316
REMARK  133  A    between atoms: _320  and  _322
REMARK  134  A    between atoms: _322  and  _323
REMARK  135  A    between atoms: _322  and  _325
REMARK  136  A    between atoms: _325  and  _326
REMARK  137  A    between atoms: _326  and  _327
REMARK  138  A    between atoms: _330  and  _332
REMARK  139  A    between atoms: _332  and  _333
REMARK  140  A    between atoms: _332  and  _335
REMARK  141  A    between atoms: _335  and  _336
REMARK  142  A    between atoms: _342  and  _344
REMARK  143  A    between atoms: _344  and  _345
REMARK  144  A    between atoms: _344  and  _347
REMARK  145  A    between atoms: _347  and  _348
REMARK  146  A    between atoms: _354  and  _356
REMARK  147  A    between atoms: _356  and  _357
REMARK  148  A    between atoms: _356  and  _359
REMARK  149  A    between atoms: _362  and  _364
REMARK  150  A    between atoms: _364  and  _365
REMARK  151  A    between atoms: _364  and  _367
REMARK  152  A    between atoms: _367  and  _368
REMARK  153  A    between atoms: _371  and  _373
REMARK  154  A    between atoms: _373  and  _374
REMARK  155  A    between atoms: _373  and  _376
REMARK  156  A    between atoms: _376  and  _377
REMARK  157  A    between atoms: _380  and  _382
REMARK  158  A    between atoms: _382  and  _383
REMARK  159  A    between atoms: _386  and  _388
REMARK  160  A    between atoms: _388  and  _389
REMARK  161  A    between atoms: _391  and  _393
REMARK  162  A    between atoms: _393  and  _394
REMARK  163  A    between atoms: _393  and  _396
REMARK  164  A    between atoms: _399  and  _401
REMARK  165  A    between atoms: _401  and  _402
REMARK  166  A    between atoms: _401  and  _404
REMARK  167  A    between atoms: _404  and  _405
REMARK  168  A    between atoms: _411  and  _413
REMARK  169  A    between atoms: _413  and  _414
REMARK  170  A    between atoms: _413  and  _416
REMARK  171  A    between atoms: _416  and  _417
REMARK  172  A    between atoms: _420  and  _422
REMARK  173  A    between atoms: _422  and  _423
REMARK  174  A    between atoms: _422  and  _425
REMARK  175  A    between atoms: _425  and  _426
REMARK  176  A    between atoms: _429  and  _431
REMARK  177  A    between atoms: _431  and  _432
REMARK  178  A    between atoms: _431  and  _434
REMARK  179  A    between atoms: _434  and  _435
REMARK  180  A    between atoms: _435  and  _436
REMARK  181  A    between atoms: _439  and  _441
REMARK  182  A    between atoms: _441  and  _442
REMARK  183  A    between atoms: _441  and  _444
REMARK  184  A    between atoms: _444  and  _445
REMARK  185  A    between atoms: _447  and  _449
REMARK  186  A    between atoms: _449  and  _450
REMARK  187  A    between atoms: _449  and  _452
REMARK  188  A    between atoms: _452  and  _453
REMARK  189  A    between atoms: _456  and  _458
REMARK  190  A    between atoms: _458  and  _459
REMARK  191  A    between atoms: _458  and  _461
REMARK  192  A    between atoms: _461  and  _462
REMARK  193  A    between atoms: _462  and  _463
REMARK  194  A    between atoms: _465  and  _467
REMARK  195  A    between atoms: _467  and  _468
REMARK  196  A    between atoms: _467  and  _470
REMARK  197  A    between atoms: _470  and  _471
REMARK  198  A    between atoms: _476  and  _478
REMARK  199  A    between atoms: _478  and  _479
REMARK  200  A    between atoms: _478  and  _481
REMARK  201  A    between atoms: _481  and  _482
REMARK  202  A    between atoms: _487  and  _488
REMARK  203  A    between atoms: _490  and  _492
REMARK  204  A    between atoms: _492  and  _493
REMARK  205  A    between atoms: _492  and  _495
REMARK  206  A    between atoms: _495  and  _496
REMARK  207  A    between atoms: _499  and  _501
REMARK  208  A    between atoms: _501  and  _502
REMARK  209  A    between atoms: _501  and  _504
REMARK  210  A    between atoms: _504  and  _505
REMARK  211  A    between atoms: _505  and  _506
REMARK  212  A    between atoms: _506  and  _507
REMARK  213  A    between atoms: _507  and  _508
REMARK  214  A    between atoms: _512  and  _514
REMARK  215  A    between atoms: _514  and  _515
REMARK  216  A    between atoms: _517  and  _519
REMARK  217  A    between atoms: _519  and  _520
REMARK  218  A    between atoms: _519  and  _522
REMARK  219  A    between atoms: _522  and  _523
REMARK  220  A    between atoms: _528  and  _529
REMARK  221  A    between atoms: _531  and  _533
REMARK  222  A    between atoms: _533  and  _534
REMARK  223  A    between atoms: _536  and  _538
REMARK  224  A    between atoms: _538  and  _539
REMARK  225  A    between atoms: _538  and  _541
REMARK  226  A    between atoms: _541  and  _542
REMARK                            x       y       z     vdW  Elec       q    Type
REMARK                         _______ _______ _______ _____ _____    ______ ____
ROOT
ATOM      1  NE  ARG A   1      23.563  21.312  59.421  0.00  0.00    -0.265 N 
ATOM      2  CZ  ARG A   1      22.997  20.126  59.221  0.00  0.00    +0.342 C 
ATOM      3  NH2 ARG A   1      22.351  19.527  60.217  0.00  0.00    -0.292 N 
ATOM      4 HH21 ARG A   1      22.290  19.986  61.148  0.00  0.00    +0.255 HD
ATOM      5 HH22 ARG A   1      21.907  18.599  60.065  0.00  0.00    +0.255 HD
ATOM      6  NH1 ARG A   1      23.067  19.548  58.026  0.00  0.00    -0.292 N 
ATOM      7 HH11 ARG A   1      22.624  18.620  57.870  0.00  0.00    +0.255 HD
ATOM      8 HH12 ARG A   1      23.565  20.024  57.247  0.00  0.00    +0.255 HD
ATOM      9  HE  ARG A   1      24.065  21.754  58.625  0.00  0.00    +0.259 HD
ENDROOT
BRANCH   1  10
ATOM     10  CD  ARG A   1      23.523  22.031  60.687  0.00  0.00    +0.174 C 
BRANCH  10  11
ATOM     11  CG  ARG A   1      24.433  23.244  60.687  0.00  0.00    +0.045 C 
BRANCH  11  12
ATOM     12  CB  ARG A   1      24.311  23.971  62.020  0.00  0.00    +0.029 C 
BRANCH  12  13
ATOM     13  CA  ARG A   1      25.327  25.091  62.233  0.00  0.00    +0.133 C 
BRANCH  13  14
ATOM     14  N   ARG A   1      26.659  24.546  62.488  0.00  0.00    -0.239 NA
ATOM     15  H   ARG A   1      26.769  23.571  62.832  0.00  0.00    +0.142 HD
ENDBRANCH  13  14
BRANCH  13  16
ATOM     16  C   ARG A   1      24.867  25.971  63.400  0.00  0.00    +0.224 C 
ATOM     17  O   ARG A   1      24.245  27.015  63.197  0.00  0.00    -0.287 OA
ENDBRANCH  13  16
ENDBRANCH  12  13
ENDBRANCH  11  12
ENDBRANCH  10  11
ENDBRANCH   1  10
TORSDOF 6
REMARK  Name = ../refined-set-2016/1syi/1syi_pocket.pdb
REMARK  226 active torsions:
REMARK  status: ('A' for Active; 'I' for Inactive)
REMARK    1  A    between atoms: _1  and  _3
REMARK    2  A    between atoms: _3  and  _4
REMARK    3  A    between atoms: _3  and  _6
REMARK    4  A    between atoms: _6  and  _7
REMARK    5  A    between atoms: _10  and  _12
REMARK    6  A    between atoms: _12  and  _13
REMARK    7  A    between atoms: _12  and  _15
REMARK    8  A    between atoms: _15  and  _16
REMARK    9  A    between atoms: _16  and  _17
REMARK   10  A    between atoms: _20  and  _22
REMARK   11  A    between atoms: _22  and  _23
REMARK   12  A    between atoms: _22  and  _25
REMARK   13  A    between atoms: _25  and  _26
REMARK   14  A    between atoms: _29  and  _30
REMARK   15  A    between atoms: _35  and  _37
REMARK   16  A    between atoms: _37  and  _38
REMARK   17  A    between atoms: _37  and  _40
REMARK   18  A    between atoms: _40  and  _41
REMARK   19  A    between atoms: _46  and  _47
REMARK   20  A    between atoms: _49  and  _51
REMARK   21  A    between atoms: _51  and  _52
REMARK   22  A    between atoms: _51  and  _54
REMARK   23  A    between atoms: _54  and  _55
REMARK   24  A    between atoms: _55  and  _56
REMARK   25  A    between atoms: _56  and  _57
REMARK   26  A    between atoms: _57  and  _58
REMARK   27  A    between atoms: _62  and  _64
REMARK   28  A    between atoms: _64  and  _65
REMARK   29  A    between atoms: _64  and  _67
REMARK   30  A    between atoms: _67  and  _68
REMARK   31  A    between atoms: _73  and  _74
REMARK   32  A    between atoms: _76  and  _78
REMARK   33  A    between atoms: _78  and  _79
REMARK   34  A    between atoms: _81  and  _83
REMARK   35  A    between atoms: _83  and  _84
REMARK   36  A    between atoms: _87  and  _89
REMARK   37  A    between atoms: _89  and  _90
REMARK   38  A    between atoms: _89  and  _92
REMARK   39  A    between atoms: _92  and  _93
REMARK   40  A    between atoms: _103  and  _105
REMARK   41  A    between atoms: _105  and  _106
REMARK   42  A    between atoms: _105  and  _108
REMARK   43  A    between atoms: _108  and  _109
REMARK   44  A    between atoms: _109  and  _110
REMARK   45  A    between atoms: _112  and  _114
REMARK   46  A    between atoms: _114  and  _115
REMARK   47  A    between atoms: _114  and  _117
REMARK   48  A    between atoms: _120  and  _122
REMARK   49  A    between atoms: _122  and  _123
REMARK   50  A    between atoms: _127  and  _128
REMARK   51  A    between atoms: _133  and  _135
REMARK   52  A    between atoms: _135  and  _136
REMARK   53  A    between atoms: _135  and  _138
REMARK   54  A    between atoms: _138  and  _139
REMARK   55  A    between atoms: _142  and  _144
REMARK   56  A    between atoms: _144  and  _145
REMARK   57  A    between atoms: _144  and  _147
REMARK   58  A    between atoms: _147  and  _148
REMARK   59  A    between atoms: _151  and  _153
REMARK   60  A    between atoms: _153  and  _154
REMARK   61  A    between atoms: _153  and  _156
REMARK   62  A    between atoms: _156  and  _157
REMARK   63  A    between atoms: _160  and  _162
REMARK   64  A    between atoms: _162  and  _163
REMARK   65  A    between atoms: _162  and  _165
REMARK   66  A    between atoms: _165  and  _166
REMARK   67  A    between atoms: _169  and  _171
REMARK   68  A    between atoms: _171  and  _172
REMARK   69  A    between atoms: _171  and  _174
REMARK   70  A    between atoms: _174  and  _175
REMARK   71  A    between atoms: _175  and  _176
REMARK   72  A    between atoms: _176  and  _177
REMARK   73  A    between atoms: _186  and  _188
REMARK   74  A    between atoms: _188  and  _189
REMARK   75  A    between atoms: _188  and  _191
REMARK   76  A    between atoms: _191  and  _192
REMARK   77  A    between atoms: _198  and  _200
REMARK   78  A    between atoms: _200  and  _201
REMARK   79  A    between atoms: _200  and  _203
REMARK   80  A    between atoms: _203  and  _204
REMARK   81  A    between atoms: _210  and  _212
REMARK   82  A    between atoms: _212  and  _213
REMARK   83  A    between atoms: _212  and  _215
REMARK   84  A    between atoms: _215  and  _216
REMARK   85  A    between atoms: _219  and  _221
REMARK   86  A    between atoms: _221  and  _222
REMARK   87  A    between atoms: _224  and  _226
REMARK   88  A    between atoms: _226  and  _227
REMARK   89  A    between atoms: _226  and  _229
REMARK   90  A    between atoms: _229  and  _230
REMARK   91  A    between atoms: _233  and  _235
REMARK   92  A    between atoms: _235  and  _236
REMARK   93  A    between atoms: _235  and  _238
REMARK   94  A    between atoms: _238  and  _239
REMARK   95  A    between atoms: _241  and  _243
REMARK   96  A    between atoms: _243  and  _244
REMARK   97  A    between atoms: _243  and  _246
REMARK   98  A    between atoms: _246  and  _247
REMARK   99  A    between atoms: _247  and  _248
REMARK  100  A    between atoms: _250  and  _252
REMARK  101  A    between atoms: _252  and  _253
REMARK  102  A    between atoms: _252  and  _255
REMARK  103  A    between atoms: _255  and  _256
REMARK  104  A    between atoms: _259  and  _261
REMARK  105  A    between atoms: _261  and  _262
REMARK  106  A    between atoms: _261  and  _264
REMARK  107  A    between atoms: _264  and  _265
REMARK  108  A    between atoms: _268  and  _270
REMARK  109  A    between atoms: _270  and  _271
REMARK  110  A    between atoms: _270  and  _273
REMARK  111  A    between atoms: _273  and  _274
REMARK  112  A    between atoms: _277  and  _279
REMARK  113  A    between atoms: _279  and  _280
REMARK  114  A    between atoms: _279  and  _282
REMARK  115  A    between atoms: _282  and  _283
REMARK  116  A    between atoms: _285  and  _287
REMARK  117  A    between atoms: _287  and  _288
REMARK  118  A    between atoms: _290  and  _292
REMARK  119  A    between atoms: _292  and  _293
REMARK  120  A    between atoms: _292  and  _295
REMARK  121  A    between atoms: _295  and  _296
REMARK  122  A    between atoms: _298  and  _300
REMARK  123  A    between atoms: _300  and  _301
REMARK  124  A    between atoms: _300  and  _303
REMARK  125  A    between atoms: _303  and  _304
REMARK  126  A    between atoms: _307  and  _309
REMARK  127  A    between atoms: _309  and  _310
REMARK  128  A    between atoms: _309  and  _312
REMARK  129  A    between atoms: _312  and  _313
REMARK  130  A    between atoms: _313  and  _314
REMARK  131  A    between atoms: _314  and  _315
REMARK  132  A    between atoms: _315  and  _316
REMARK  133  A    between atoms: _320  and  _322
REMARK  134  A    between atoms: _322  and  _323
REMARK  135  A    between atoms: _322  and  _325
REMARK  136  A    between atoms: _325  and  _326
REMARK  137  A    between atoms: _326  and  _327
REMARK  138  A    between atoms: _330  and  _332
REMARK  139  A    between atoms: _332  and  _333
REMARK  140  A    between atoms: _332  and  _335
REMARK  141  A    between atoms: _335  and  _336
REMARK  142  A    between atoms: _342  and  _344
REMARK  143  A    between atoms: _344  and  _345
REMARK  144  A    between atoms: _344  and  _347
REMARK  145  A    between atoms: _347  and  _348
REMARK  146  A    between atoms: _354  and  _356
REMARK  147  A    between atoms: _356  and  _357
REMARK  148  A    between atoms: _356  and  _359
REMARK  149  A    between atoms: _362  and  _364
REMARK  150  A    between atoms: _364  and  _365
REMARK  151  A    between atoms: _364  and  _367
REMARK  152  A    between atoms: _367  and  _368
REMARK  153  A    between atoms: _371  and  _373
REMARK  154  A    between atoms: _373  and  _374
REMARK  155  A    between atoms: _373  and  _376
REMARK  156  A    between atoms: _376  and  _377
REMARK  157  A    between atoms: _380  and  _382
REMARK  158  A    between atoms: _382  and  _383
REMARK  159  A    between atoms: _386  and  _388
REMARK  160  A    between atoms: _388  and  _389
REMARK  161  A    between atoms: _391  and  _393
REMARK  162  A    between atoms: _393  and  _394
REMARK  163  A    between atoms: _393  and  _396
REMARK  164  A    between atoms: _399  and  _401
REMARK  165  A    between atoms: _401  and  _402
REMARK  166  A    between atoms: _401  and  _404
REMARK  167  A    between atoms: _404  and  _405
REMARK  168  A    between atoms: _411  and  _413
REMARK  169  A    between atoms: _413  and  _414
REMARK  170  A    between atoms: _413  and  _416
REMARK  171  A    between atoms: _416  and  _417
REMARK  172  A    between atoms: _420  and  _422
REMARK  173  A    between atoms: _422  and  _423
REMARK  174  A    between atoms: _422  and  _425
REMARK  175  A    between atoms: _425  and  _426
REMARK  176  A    between atoms: _429  and  _431
REMARK  177  A    between atoms: _431  and  _432
REMARK  178  A    between atoms: _431  and  _434
REMARK  179  A    between atoms: _434  and  _435
REMARK  180  A    between atoms: _435  and  _436
REMARK  181  A    between atoms: _439  and  _441
REMARK  182  A    between atoms: _441  and  _442
REMARK  183  A    between atoms: _441  and  _444
REMARK  184  A    between atoms: _444  and  _445
REMARK  185  A    between atoms: _447  and  _449
REMARK  186  A    between atoms: _449  and  _450
REMARK  187  A    between atoms: _449  and  _452
REMARK  188  A    between atoms: _452  and  _453
REMARK  189  A    between atoms: _456  and  _458
REMARK  190  A    between atoms: _458  and  _459
REMARK  191  A    between atoms: _458  and  _461
REMARK  192  A    between atoms: _461  and  _462
REMARK  193  A    between atoms: _462  and  _463
REMARK  194  A    between atoms: _465  and  _467
REMARK  195  A    between atoms: _467  and  _468
REMARK  196  A    between atoms: _467  and  _470
REMARK  197  A    between atoms: _470  and  _471
REMARK  198  A    between atoms: _476  and  _478
REMARK  199  A    between atoms: _478  and  _479
REMARK  200  A    between atoms: _478  and  _481
REMARK  201  A    between atoms: _481  and  _482
REMARK  202  A    between atoms: _487  and  _488
REMARK  203  A    between atoms: _490  and  _492
REMARK  204  A    between atoms: _492  and  _493
REMARK  205  A    between atoms: _492  and  _495
REMARK  206  A    between atoms: _495  and  _496
REMARK  207  A    between atoms: _499  and  _501
REMARK  208  A    between atoms: _501  and  _502
REMARK  209  A    between atoms: _501  and  _504
REMARK  210  A    between atoms: _504  and  _505
REMARK  211  A    between atoms: _505  and  _506
REMARK  212  A    between atoms: _506  and  _507
REMARK  213  A    between atoms: _507  and  _508
REMARK  214  A    between atoms: _512  and  _514
REMARK  215  A    between atoms: _514  and  _515
REMARK  216  A    between atoms: _517  and  _519
REMARK  217  A    between atoms: _519  and  _520
REMARK  218  A    between atoms: _519  and  _522
REMARK  219  A    between atoms: _522  and  _523
REMARK  220  A    between atoms: _528  and  _529
REMARK  221  A    between atoms: _531  and  _533
REMARK  222  A    between atoms: _533  and  _534
REMARK  223  A    between atoms: _536  and  _538
REMARK  224  A    between atoms: _538  and  _539
REMARK  225  A    between atoms: _538  and  _541
REMARK  226  A    between atoms: _541  and  _542
REMARK                            x       y       z     vdW  Elec       q    Type
REMARK                         _______ _______ _______ _____ _____    ______ ____
ROOT
ATOM      1  CB  PHE A   1      19.573  23.970  67.599  0.00  0.00    +0.051 C 
ENDROOT
BRANCH   1   2
ATOM      2  CG  PHE A   1      20.013  23.636  66.199  0.00  0.00    -0.020 A 
ATOM      3  CD2 PHE A   1      21.265  24.024  65.744  0.00  0.00    -0.004 A 
ATOM      4  CE2 PHE A   1      21.712  23.650  64.477  0.00  0.00    -0.000 A 
ATOM      5  CZ  PHE A   1      20.900  22.884  63.654  0.00  0.00    -0.000 A 
ATOM      6  CE1 PHE A   1      19.644  22.494  64.091  0.00  0.00    -0.000 A 
ATOM      7  CD1 PHE A   1      19.205  22.872  65.360  0.00  0.00    -0.004 A 
ENDBRANCH   1   2
BRANCH   1   8
ATOM      8  CA  PHE A   1      18.512  25.073  67.690  0.00  0.00    +0.137 C 
BRANCH   8   9
ATOM      9  N   PHE A   1      19.129  26.391  67.629  0.00  0.00    -0.239 NA
ATOM     10  H   PHE A   1      19.769  26.677  68.397  0.00  0.00    +0.142 HD
ENDBRANCH   8   9
BRANCH   8  11
ATOM     11  C   PHE A   1      17.828  24.941  69.040  0.00  0.00    +0.224 C 
ATOM     12  O   PHE A   1      18.374  25.360  70.057  0.00  0.00    -0.287 OA
ENDBRANCH   8  11
ENDBRANCH   1   8
TORSDOF 4
REMARK  Name = ../refined-set-2016/1syi/1syi_pocket.pdb
REMARK  226 active torsions:
REMARK  status: ('A' for Active; 'I' for Inactive)
REMARK    1  A    between atoms: _1  and  _3
REMARK    2  A    between atoms: _3  and  _4
REMARK    3  A    between atoms: _3  and  _6
REMARK    4  A    between atoms: _6  and  _7
REMARK    5  A    between atoms: _10  and  _12
REMARK    6  A    between atoms: _12  and  _13
REMARK    7  A    between atoms: _12  and  _15
REMARK    8  A    between atoms: _15  and  _16
REMARK    9  A    between atoms: _16  and  _17
REMARK   10  A    between atoms: _20  and  _22
REMARK   11  A    between atoms: _22  and  _23
REMARK   12  A    between atoms: _22  and  _25
REMARK   13  A    between atoms: _25  and  _26
REMARK   14  A    between atoms: _29  and  _30
REMARK   15  A    between atoms: _35  and  _37
REMARK   16  A    between atoms: _37  and  _38
REMARK   17  A    between atoms: _37  and  _40
REMARK   18  A    between atoms: _40  and  _41
REMARK   19  A    between atoms: _46  and  _47
REMARK   20  A    between atoms: _49  and  _51
REMARK   21  A    between atoms: _51  and  _52
REMARK   22  A    between atoms: _51  and  _54
REMARK   23  A    between atoms: _54  and  _55
REMARK   24  A    between atoms: _55  and  _56
REMARK   25  A    between atoms: _56  and  _57
REMARK   26  A    between atoms: _57  and  _58
REMARK   27  A    between atoms: _62  and  _64
REMARK   28  A    between atoms: _64  and  _65
REMARK   29  A    between atoms: _64  and  _67
REMARK   30  A    between atoms: _67  and  _68
REMARK   31  A    between atoms: _73  and  _74
REMARK   32  A    between atoms: _76  and  _78
REMARK   33  A    between atoms: _78  and  _79
REMARK   34  A    between atoms: _81  and  _83
REMARK   35  A    between atoms: _83  and  _84
REMARK   36  A    between atoms: _87  and  _89
REMARK   37  A    between atoms: _89  and  _90
REMARK   38  A    between atoms: _89  and  _92
REMARK   39  A    between atoms: _92  and  _93
REMARK   40  A    between atoms: _103  and  _105
REMARK   41  A    between atoms: _105  and  _106
REMARK   42  A    between atoms: _105  and  _108
REMARK   43  A    between atoms: _108  and  _109
REMARK   44  A    between atoms: _109  and  _110
REMARK   45  A    between atoms: _112  and  _114
REMARK   46  A    between atoms: _114  and  _115
REMARK   47  A    between atoms: _114  and  _117
REMARK   48  A    between atoms: _120  and  _122
REMARK   49  A    between atoms: _122  and  _123
REMARK   50  A    between atoms: _127  and  _128
REMARK   51  A    between atoms: _133  and  _135
REMARK   52  A    between atoms: _135  and  _136
REMARK   53  A    between atoms: _135  and  _138
REMARK   54  A    between atoms: _138  and  _139
REMARK   55  A    between atoms: _142  and  _144
REMARK   56  A    between atoms: _144  and  _145
REMARK   57  A    between atoms: _144  and  _147
REMARK   58  A    between atoms: _147  and  _148
REMARK   59  A    between atoms: _151  and  _153
REMARK   60  A    between atoms: _153  and  _154
REMARK   61  A    between atoms: _153  and  _156
REMARK   62  A    between atoms: _156  and  _157
REMARK   63  A    between atoms: _160  and  _162
REMARK   64  A    between atoms: _162  and  _163
REMARK   65  A    between atoms: _162  and  _165
REMARK   66  A    between atoms: _165  and  _166
REMARK   67  A    between atoms: _169  and  _171
REMARK   68  A    between atoms: _171  and  _172
REMARK   69  A    between atoms: _171  and  _174
REMARK   70  A    between atoms: _174  and  _175
REMARK   71  A    between atoms: _175  and  _176
REMARK   72  A    between atoms: _176  and  _177
REMARK   73  A    between atoms: _186  and  _188
REMARK   74  A    between atoms: _188  and  _189
REMARK   75  A    between atoms: _188  and  _191
REMARK   76  A    between atoms: _191  and  _192
REMARK   77  A    between atoms: _198  and  _200
REMARK   78  A    between atoms: _200  and  _201
REMARK   79  A    between atoms: _200  and  _203
REMARK   80  A    between atoms: _203  and  _204
REMARK   81  A    between atoms: _210  and  _212
REMARK   82  A    between atoms: _212  and  _213
REMARK   83  A    between atoms: _212  and  _215
REMARK   84  A    between atoms: _215  and  _216
REMARK   85  A    between atoms: _219  and  _221
REMARK   86  A    between atoms: _221  and  _222
REMARK   87  A    between atoms: _224  and  _226
REMARK   88  A    between atoms: _226  and  _227
REMARK   89  A    between atoms: _226  and  _229
REMARK   90  A    between atoms: _229  and  _230
REMARK   91  A    between atoms: _233  and  _235
REMARK   92  A    between atoms: _235  and  _236
REMARK   93  A    between atoms: _235  and  _238
REMARK   94  A    between atoms: _238  and  _239
REMARK   95  A    between atoms: _241  and  _243
REMARK   96  A    between atoms: _243  and  _244
REMARK   97  A    between atoms: _243  and  _246
REMARK   98  A    between atoms: _246  and  _247
REMARK   99  A    between atoms: _247  and  _248
REMARK  100  A    between atoms: _250  and  _252
REMARK  101  A    between atoms: _252  and  _253
REMARK  102  A    between atoms: _252  and  _255
REMARK  103  A    between atoms: _255  and  _256
REMARK  104  A    between atoms: _259  and  _261
REMARK  105  A    between atoms: _261  and  _262
REMARK  106  A    between atoms: _261  and  _264
REMARK  107  A    between atoms: _264  and  _265
REMARK  108  A    between atoms: _268  and  _270
REMARK  109  A    between atoms: _270  and  _271
REMARK  110  A    between atoms: _270  and  _273
REMARK  111  A    between atoms: _273  and  _274
REMARK  112  A    between atoms: _277  and  _279
REMARK  113  A    between atoms: _279  and  _280
REMARK  114  A    between atoms: _279  and  _282
REMARK  115  A    between atoms: _282  and  _283
REMARK  116  A    between atoms: _285  and  _287
REMARK  117  A    between atoms: _287  and  _288
REMARK  118  A    between atoms: _290  and  _292
REMARK  119  A    between atoms: _292  and  _293
REMARK  120  A    between atoms: _292  and  _295
REMARK  121  A    between atoms: _295  and  _296
REMARK  122  A    between atoms: _298  and  _300
REMARK  123  A    between atoms: _300  and  _301
REMARK  124  A    between atoms: _300  and  _303
REMARK  125  A    between atoms: _303  and  _304
REMARK  126  A    between atoms: _307  and  _309
REMARK  127  A    between atoms: _309  and  _310
REMARK  128  A    between atoms: _309  and  _312
REMARK  129  A    between atoms: _312  and  _313
REMARK  130  A    between atoms: _313  and  _314
REMARK  131  A    between atoms: _314  and  _315
REMARK  132  A    between atoms: _315  and  _316
REMARK  133  A    between atoms: _320  and  _322
REMARK  134  A    between atoms: _322  and  _323
REMARK  135  A    between atoms: _322  and  _325
REMARK  136  A    between atoms: _325  and  _326
REMARK  137  A    between atoms: _326  and  _327
REMARK  138  A    between atoms: _330  and  _332
REMARK  139  A    between atoms: _332  and  _333
REMARK  140  A    between atoms: _332  and  _335
REMARK  141  A    between atoms: _335  and  _336
REMARK  142  A    between atoms: _342  and  _344
REMARK  143  A    between atoms: _344  and  _345
REMARK  144  A    between atoms: _344  and  _347
REMARK  145  A    between atoms: _347  and  _348
REMARK  146  A    between atoms: _354  and  _356
REMARK  147  A    between atoms: _356  and  _357
REMARK  148  A    between atoms: _356  and  _359
REMARK  149  A    between atoms: _362  and  _364
REMARK  150  A    between atoms: _364  and  _365
REMARK  151  A    between atoms: _364  and  _367
REMARK  152  A    between atoms: _367  and  _368
REMARK  153  A    between atoms: _371  and  _373
REMARK  154  A    between atoms: _373  and  _374
REMARK  155  A    between atoms: _373  and  _376
REMARK  156  A    between atoms: _376  and  _377
REMARK  157  A    between atoms: _380  and  _382
REMARK  158  A    between atoms: _382  and  _383
REMARK  159  A    between atoms: _386  and  _388
REMARK  160  A    between atoms: _388  and  _389
REMARK  161  A    between atoms: _391  and  _393
REMARK  162  A    between atoms: _393  and  _394
REMARK  163  A    between atoms: _393  and  _396
REMARK  164  A    between atoms: _399  and  _401
REMARK  165  A    between atoms: _401  and  _402
REMARK  166  A    between atoms: _401  and  _404
REMARK  167  A    between atoms: _404  and  _405
REMARK  168  A    between atoms: _411  and  _413
REMARK  169  A    between atoms: _413  and  _414
REMARK  170  A    between atoms: _413  and  _416
REMARK  171  A    between atoms: _416  and  _417
REMARK  172  A    between atoms: _420  and  _422
REMARK  173  A    between atoms: _422  and  _423
REMARK  174  A    between atoms: _422  and  _425
REMARK  175  A    between atoms: _425  and  _426
REMARK  176  A    between atoms: _429  and  _431
REMARK  177  A    between atoms: _431  and  _432
REMARK  178  A    between atoms: _431  and  _434
REMARK  179  A    between atoms: _434  and  _435
REMARK  180  A    between atoms: _435  and  _436
REMARK  181  A    between atoms: _439  and  _441
REMARK  182  A    between atoms: _441  and  _442
REMARK  183  A    between atoms: _441  and  _444
REMARK  184  A    between atoms: _444  and  _445
REMARK  185  A    between atoms: _447  and  _449
REMARK  186  A    between atoms: _449  and  _450
REMARK  187  A    between atoms: _449  and  _452
REMARK  188  A    between atoms: _452  and  _453
REMARK  189  A    between atoms: _456  and  _458
REMARK  190  A    between atoms: _458  and  _459
REMARK  191  A    between atoms: _458  and  _461
REMARK  192  A    between atoms: _461  and  _462
REMARK  193  A    between atoms: _462  and  _463
REMARK  194  A    between atoms: _465  and  _467
REMARK  195  A    between atoms: _467  and  _468
REMARK  196  A    between atoms: _467  and  _470
REMARK  197  A    between atoms: _470  and  _471
REMARK  198  A    between atoms: _476  and  _478
REMARK  199  A    between atoms: _478  and  _479
REMARK  200  A    between atoms: _478  and  _481
REMARK  201  A    between atoms: _481  and  _482
REMARK  202  A    between atoms: _487  and  _488
REMARK  203  A    between atoms: _490  and  _492
REMARK  204  A    between atoms: _492  and  _493
REMARK  205  A    between atoms: _492  and  _495
REMARK  206  A    between atoms: _495  and  _496
REMARK  207  A    between atoms: _499  and  _501
REMARK  208  A    between atoms: _501  and  _502
REMARK  209  A    between atoms: _501  and  _504
REMARK  210  A    between atoms: _504  and  _505
REMARK  211  A    between atoms: _505  and  _506
REMARK  212  A    between atoms: _506  and  _507
REMARK  213  A    between atoms: _507  and  _508
REMARK  214  A    between atoms: _512  and  _514
REMARK  215  A    between atoms: _514  and  _515
REMARK  216  A    between atoms: _517  and  _519
REMARK  217  A    between atoms: _519  and  _520
REMARK  218  A    between atoms: _519  and  _522
REMARK  219  A    between atoms: _522  and  _523
REMARK  220  A    between atoms: _528  and  _529
REMARK  221  A    between atoms: _531  and  _533
REMARK  222  A    between atoms: _533  and  _534
REMARK  223  A    between atoms: _536  and  _538
REMARK  224  A    between atoms: _538  and  _539
REMARK  225  A    between atoms: _538  and  _541
REMARK  226  A    between atoms: _541  and  _542
REMARK                            x       y       z     vdW  Elec       q    Type
REMARK                         _______ _______ _______ _____ _____    ______ ____
ROOT
ATOM      1  CB  PHE A   1      12.320  17.202  69.177  0.00  0.00    +0.051 C 
ENDROOT
BRANCH   1   2
ATOM      2  CG  PHE A   1      12.650  17.059  67.707  0.00  0.00    -0.020 A 
ATOM      3  CD2 PHE A   1      12.464  15.849  67.048  0.00  0.00    -0.004 A 
ATOM      4  CE2 PHE A   1      12.778  15.718  65.687  0.00  0.00    -0.000 A 
ATOM      5  CZ  PHE A   1      13.282  16.806  64.982  0.00  0.00    -0.000 A 
ATOM      6  CE1 PHE A   1      13.471  18.022  65.634  0.00  0.00    -0.000 A 
ATOM      7  CD1 PHE A   1      13.154  18.142  66.990  0.00  0.00    -0.004 A 
ENDBRANCH   1   2
BRANCH   1   8
ATOM      8  CA  PHE A   1      13.337  16.529  70.132  0.00  0.00    +0.137 C 
BRANCH   8   9
ATOM      9  N   PHE A   1      14.667  17.124  70.018  0.00  0.00    -0.239 NA
ATOM     10  H   PHE A   1      15.068  17.311  69.077  0.00  0.00    +0.142 HD
ENDBRANCH   8   9
BRANCH   8  11
ATOM     11  C   PHE A   1      13.472  15.033  69.826  0.00  0.00    +0.224 C 
ATOM     12  O   PHE A   1      12.516  14.272  69.953  0.00  0.00    -0.287 OA
ENDBRANCH   8  11
ENDBRANCH   1   8
TORSDOF 4
REMARK  Name = ../refined-set-2016/1syi/1syi_pocket.pdb
REMARK  226 active torsions:
REMARK  status: ('A' for Active; 'I' for Inactive)
REMARK    1  A    between atoms: _1  and  _3
REMARK    2  A    between atoms: _3  and  _4
REMARK    3  A    between atoms: _3  and  _6
REMARK    4  A    between atoms: _6  and  _7
REMARK    5  A    between atoms: _10  and  _12
REMARK    6  A    between atoms: _12  and  _13
REMARK    7  A    between atoms: _12  and  _15
REMARK    8  A    between atoms: _15  and  _16
REMARK    9  A    between atoms: _16  and  _17
REMARK   10  A    between atoms: _20  and  _22
REMARK   11  A    between atoms: _22  and  _23
REMARK   12  A    between atoms: _22  and  _25
REMARK   13  A    between atoms: _25  and  _26
REMARK   14  A    between atoms: _29  and  _30
REMARK   15  A    between atoms: _35  and  _37
REMARK   16  A    between atoms: _37  and  _38
REMARK   17  A    between atoms: _37  and  _40
REMARK   18  A    between atoms: _40  and  _41
REMARK   19  A    between atoms: _46  and  _47
REMARK   20  A    between atoms: _49  and  _51
REMARK   21  A    between atoms: _51  and  _52
REMARK   22  A    between atoms: _51  and  _54
REMARK   23  A    between atoms: _54  and  _55
REMARK   24  A    between atoms: _55  and  _56
REMARK   25  A    between atoms: _56  and  _57
REMARK   26  A    between atoms: _57  and  _58
REMARK   27  A    between atoms: _62  and  _64
REMARK   28  A    between atoms: _64  and  _65
REMARK   29  A    between atoms: _64  and  _67
REMARK   30  A    between atoms: _67  and  _68
REMARK   31  A    between atoms: _73  and  _74
REMARK   32  A    between atoms: _76  and  _78
REMARK   33  A    between atoms: _78  and  _79
REMARK   34  A    between atoms: _81  and  _83
REMARK   35  A    between atoms: _83  and  _84
REMARK   36  A    between atoms: _87  and  _89
REMARK   37  A    between atoms: _89  and  _90
REMARK   38  A    between atoms: _89  and  _92
REMARK   39  A    between atoms: _92  and  _93
REMARK   40  A    between atoms: _103  and  _105
REMARK   41  A    between atoms: _105  and  _106
REMARK   42  A    between atoms: _105  and  _108
REMARK   43  A    between atoms: _108  and  _109
REMARK   44  A    between atoms: _109  and  _110
REMARK   45  A    between atoms: _112  and  _114
REMARK   46  A    between atoms: _114  and  _115
REMARK   47  A    between atoms: _114  and  _117
REMARK   48  A    between atoms: _120  and  _122
REMARK   49  A    between atoms: _122  and  _123
REMARK   50  A    between atoms: _127  and  _128
REMARK   51  A    between atoms: _133  and  _135
REMARK   52  A    between atoms: _135  and  _136
REMARK   53  A    between atoms: _135  and  _138
REMARK   54  A    between atoms: _138  and  _139
REMARK   55  A    between atoms: _142  and  _144
REMARK   56  A    between atoms: _144  and  _145
REMARK   57  A    between atoms: _144  and  _147
REMARK   58  A    between atoms: _147  and  _148
REMARK   59  A    between atoms: _151  and  _153
REMARK   60  A    between atoms: _153  and  _154
REMARK   61  A    between atoms: _153  and  _156
REMARK   62  A    between atoms: _156  and  _157
REMARK   63  A    between atoms: _160  and  _162
REMARK   64  A    between atoms: _162  and  _163
REMARK   65  A    between atoms: _162  and  _165
REMARK   66  A    between atoms: _165  and  _166
REMARK   67  A    between atoms: _169  and  _171
REMARK   68  A    between atoms: _171  and  _172
REMARK   69  A    between atoms: _171  and  _174
REMARK   70  A    between atoms: _174  and  _175
REMARK   71  A    between atoms: _175  and  _176
REMARK   72  A    between atoms: _176  and  _177
REMARK   73  A    between atoms: _186  and  _188
REMARK   74  A    between atoms: _188  and  _189
REMARK   75  A    between atoms: _188  and  _191
REMARK   76  A    between atoms: _191  and  _192
REMARK   77  A    between atoms: _198  and  _200
REMARK   78  A    between atoms: _200  and  _201
REMARK   79  A    between atoms: _200  and  _203
REMARK   80  A    between atoms: _203  and  _204
REMARK   81  A    between atoms: _210  and  _212
REMARK   82  A    between atoms: _212  and  _213
REMARK   83  A    between atoms: _212  and  _215
REMARK   84  A    between atoms: _215  and  _216
REMARK   85  A    between atoms: _219  and  _221
REMARK   86  A    between atoms: _221  and  _222
REMARK   87  A    between atoms: _224  and  _226
REMARK   88  A    between atoms: _226  and  _227
REMARK   89  A    between atoms: _226  and  _229
REMARK   90  A    between atoms: _229  and  _230
REMARK   91  A    between atoms: _233  and  _235
REMARK   92  A    between atoms: _235  and  _236
REMARK   93  A    between atoms: _235  and  _238
REMARK   94  A    between atoms: _238  and  _239
REMARK   95  A    between atoms: _241  and  _243
REMARK   96  A    between atoms: _243  and  _244
REMARK   97  A    between atoms: _243  and  _246
REMARK   98  A    between atoms: _246  and  _247
REMARK   99  A    between atoms: _247  and  _248
REMARK  100  A    between atoms: _250  and  _252
REMARK  101  A    between atoms: _252  and  _253
REMARK  102  A    between atoms: _252  and  _255
REMARK  103  A    between atoms: _255  and  _256
REMARK  104  A    between atoms: _259  and  _261
REMARK  105  A    between atoms: _261  and  _262
REMARK  106  A    between atoms: _261  and  _264
REMARK  107  A    between atoms: _264  and  _265
REMARK  108  A    between atoms: _268  and  _270
REMARK  109  A    between atoms: _270  and  _271
REMARK  110  A    between atoms: _270  and  _273
REMARK  111  A    between atoms: _273  and  _274
REMARK  112  A    between atoms: _277  and  _279
REMARK  113  A    between atoms: _279  and  _280
REMARK  114  A    between atoms: _279  and  _282
REMARK  115  A    between atoms: _282  and  _283
REMARK  116  A    between atoms: _285  and  _287
REMARK  117  A    between atoms: _287  and  _288
REMARK  118  A    between atoms: _290  and  _292
REMARK  119  A    between atoms: _292  and  _293
REMARK  120  A    between atoms: _292  and  _295
REMARK  121  A    between atoms: _295  and  _296
REMARK  122  A    between atoms: _298  and  _300
REMARK  123  A    between atoms: _300  and  _301
REMARK  124  A    between atoms: _300  and  _303
REMARK  125  A    between atoms: _303  and  _304
REMARK  126  A    between atoms: _307  and  _309
REMARK  127  A    between atoms: _309  and  _310
REMARK  128  A    between atoms: _309  and  _312
REMARK  129  A    between atoms: _312  and  _313
REMARK  130  A    between atoms: _313  and  _314
REMARK  131  A    between atoms: _314  and  _315
REMARK  132  A    between atoms: _315  and  _316
REMARK  133  A    between atoms: _320  and  _322
REMARK  134  A    between atoms: _322  and  _323
REMARK  135  A    between atoms: _322  and  _325
REMARK  136  A    between atoms: _325  and  _326
REMARK  137  A    between atoms: _326  and  _327
REMARK  138  A    between atoms: _330  and  _332
REMARK  139  A    between atoms: _332  and  _333
REMARK  140  A    between atoms: _332  and  _335
REMARK  141  A    between atoms: _335  and  _336
REMARK  142  A    between atoms: _342  and  _344
REMARK  143  A    between atoms: _344  and  _345
REMARK  144  A    between atoms: _344  and  _347
REMARK  145  A    between atoms: _347  and  _348
REMARK  146  A    between atoms: _354  and  _356
REMARK  147  A    between atoms: _356  and  _357
REMARK  148  A    between atoms: _356  and  _359
REMARK  149  A    between atoms: _362  and  _364
REMARK  150  A    between atoms: _364  and  _365
REMARK  151  A    between atoms: _364  and  _367
REMARK  152  A    between atoms: _367  and  _368
REMARK  153  A    between atoms: _371  and  _373
REMARK  154  A    between atoms: _373  and  _374
REMARK  155  A    between atoms: _373  and  _376
REMARK  156  A    between atoms: _376  and  _377
REMARK  157  A    between atoms: _380  and  _382
REMARK  158  A    between atoms: _382  and  _383
REMARK  159  A    between atoms: _386  and  _388
REMARK  160  A    between atoms: _388  and  _389
REMARK  161  A    between atoms: _391  and  _393
REMARK  162  A    between atoms: _393  and  _394
REMARK  163  A    between atoms: _393  and  _396
REMARK  164  A    between atoms: _399  and  _401
REMARK  165  A    between atoms: _401  and  _402
REMARK  166  A    between atoms: _401  and  _404
REMARK  167  A    between atoms: _404  and  _405
REMARK  168  A    between atoms: _411  and  _413
REMARK  169  A    between atoms: _413  and  _414
REMARK  170  A    between atoms: _413  and  _416
REMARK  171  A    between atoms: _416  and  _417
REMARK  172  A    between atoms: _420  and  _422
REMARK  173  A    between atoms: _422  and  _423
REMARK  174  A    between atoms: _422  and  _425
REMARK  175  A    between atoms: _425  and  _426
REMARK  176  A    between atoms: _429  and  _431
REMARK  177  A    between atoms: _431  and  _432
REMARK  178  A    between atoms: _431  and  _434
REMARK  179  A    between atoms: _434  and  _435
REMARK  180  A    between atoms: _435  and  _436
REMARK  181  A    between atoms: _439  and  _441
REMARK  182  A    between atoms: _441  and  _442
REMARK  183  A    between atoms: _441  and  _444
REMARK  184  A    between atoms: _444  and  _445
REMARK  185  A    between atoms: _447  and  _449
REMARK  186  A    between atoms: _449  and  _450
REMARK  187  A    between atoms: _449  and  _452
REMARK  188  A    between atoms: _452  and  _453
REMARK  189  A    between atoms: _456  and  _458
REMARK  190  A    between atoms: _458  and  _459
REMARK  191  A    between atoms: _458  and  _461
REMARK  192  A    between atoms: _461  and  _462
REMARK  193  A    between atoms: _462  and  _463
REMARK  194  A    between atoms: _465  and  _467
REMARK  195  A    between atoms: _467  and  _468
REMARK  196  A    between atoms: _467  and  _470
REMARK  197  A    between atoms: _470  and  _471
REMARK  198  A    between atoms: _476  and  _478
REMARK  199  A    between atoms: _478  and  _479
REMARK  200  A    between atoms: _478  and  _481
REMARK  201  A    between atoms: _481  and  _482
REMARK  202  A    between atoms: _487  and  _488
REMARK  203  A    between atoms: _490  and  _492
REMARK  204  A    between atoms: _492  and  _493
REMARK  205  A    between atoms: _492  and  _495
REMARK  206  A    between atoms: _495  and  _496
REMARK  207  A    between atoms: _499  and  _501
REMARK  208  A    between atoms: _501  and  _502
REMARK  209  A    between atoms: _501  and  _504
REMARK  210  A    between atoms: _504  and  _505
REMARK  211  A    between atoms: _505  and  _506
REMARK  212  A    between atoms: _506  and  _507
REMARK  213  A    between atoms: _507  and  _508
REMARK  214  A    between atoms: _512  and  _514
REMARK  215  A    between atoms: _514  and  _515
REMARK  216  A    between atoms: _517  and  _519
REMARK  217  A    between atoms: _519  and  _520
REMARK  218  A    between atoms: _519  and  _522
REMARK  219  A    between atoms: _522  and  _523
REMARK  220  A    between atoms: _528  and  _529
REMARK  221  A    between atoms: _531  and  _533
REMARK  222  A    between atoms: _533  and  _534
REMARK  223  A    between atoms: _536  and  _538
REMARK  224  A    between atoms: _538  and  _539
REMARK  225  A    between atoms: _538  and  _541
REMARK  226  A    between atoms: _541  and  _542
REMARK                            x       y       z     vdW  Elec       q    Type
REMARK                         _______ _______ _______ _____ _____    ______ ____
ROOT
ATOM      1  C   GLY A   2      23.782   7.636  64.971  0.00  0.00    +0.243 C 
ATOM      2  O   GLY A   2      22.894   6.910  64.532  0.00  0.00    -0.273 OA
ATOM      3  N   ILE A   3      24.935   7.827  64.340  0.00  0.00    -0.297 N 
ATOM      4  H   ILE A   3      25.643   8.465  64.757  0.00  0.00    +0.150 HD
ENDROOT
BRANCH   1   5
ATOM      5  CA  GLY A   2      23.589   8.368  66.282  0.00  0.00    +0.176 C 
BRANCH   5   8
ATOM      6  C   LEU A   1      21.727   9.348  67.480  0.00  0.00    +0.238 C 
ATOM      7  O   LEU A   1      22.459  10.085  68.135  0.00  0.00    -0.274 OA
ATOM      8  N   GLY A   2      22.176   8.486  66.574  0.00  0.00    -0.296 N 
ATOM      9  H   GLY A   2      21.498   7.884  66.064  0.00  0.00    +0.150 HD
BRANCH   6  10
ATOM     10  CA  LEU A   1      20.218   9.374  67.666  0.00  0.00    +0.145 C 
BRANCH  10  11
ATOM     11  N   LEU A   1      19.789  10.362  68.643  0.00  0.00    -0.238 NA
ATOM     12  H   LEU A   1      20.450  11.101  68.958  0.00  0.00    +0.142 HD
ENDBRANCH  10  11
BRANCH  10  13
ATOM     13  CB  LEU A   1      19.566   9.679  66.325  0.00  0.00    +0.026 C 
BRANCH  13  14
ATOM     14  CG  LEU A   1      19.938  11.083  65.866  0.00  0.00    +0.002 C 
ATOM     15  CD2 LEU A   1      18.674  11.895  65.680  0.00  0.00    +0.000 C 
ATOM     16  CD1 LEU A   1      20.759  11.016  64.587  0.00  0.00    +0.000 C 
ENDBRANCH  13  14
ENDBRANCH  10  13
ENDBRANCH   6  10
ENDBRANCH   5   8
ENDBRANCH   1   5
BRANCH   3  17
ATOM     17  CA  ILE A   3      25.231   7.164  63.077  0.00  0.00    +0.149 C 
BRANCH  17  18
ATOM     18  C   ILE A   3      25.273   5.648  63.299  0.00  0.00    +0.241 C 
ATOM     19  O   ILE A   3      25.904   5.162  64.242  0.00  0.00    -0.273 OA
ATOM     20  N   SER A   4      24.580   4.915  62.431  0.00  0.00    -0.296 N 
ATOM     21  H   SER A   4      24.079   5.396  61.657  0.00  0.00    +0.150 HD
BRANCH  20  22
ATOM     22  CA  SER A   4      24.498   3.467  62.526  0.00  0.00    +0.166 C 
BRANCH  22  23
ATOM     23  C   SER A   4      24.827   2.795  61.199  0.00  0.00    +0.229 C 
ATOM     24  O   SER A   4      25.101   3.460  60.198  0.00  0.00    -0.286 OA
ENDBRANCH  22  23
BRANCH  22  25
ATOM     25  CB  SER A   4      23.094   3.057  62.962  0.00  0.00    +0.165 C 
BRANCH  25  26
ATOM     26  OG  SER A   4      22.140   3.402  61.969  0.00  0.00    -0.380 OA
ATOM     27  H   SER A   4      22.157   4.381  61.822  0.00  0.00    +0.211 HD
ENDBRANCH  25  26
ENDBRANCH  22  25
ENDBRANCH  20  22
ENDBRANCH  17  18
BRANCH  17  28
ATOM     28  CB  ILE A   3      26.581   7.655  62.502  0.00  0.00    +0.027 C 
ATOM     29  CG2 ILE A   3      26.873   6.965  61.173  0.00  0.00    +0.002 C 
BRANCH  28  30
ATOM     30  CG1 ILE A   3      26.526   9.176  62.303  0.00  0.00    +0.002 C 
ATOM     31  CD1 ILE A   3      27.832   9.814  61.864  0.00  0.00    +0.000 C 
ENDBRANCH  28  30
ENDBRANCH  17  28
ENDBRANCH   3  17
TORSDOF 14
REMARK  Name = ../refined-set-2016/1syi/1syi_pocket.pdb
REMARK  226 active torsions:
REMARK  status: ('A' for Active; 'I' for Inactive)
REMARK    1  A    between atoms: _1  and  _3
REMARK    2  A    between atoms: _3  and  _4
REMARK    3  A    between atoms: _3  and  _6
REMARK    4  A    between atoms: _6  and  _7
REMARK    5  A    between atoms: _10  and  _12
REMARK    6  A    between atoms: _12  and  _13
REMARK    7  A    between atoms: _12  and  _15
REMARK    8  A    between atoms: _15  and  _16
REMARK    9  A    between atoms: _16  and  _17
REMARK   10  A    between atoms: _20  and  _22
REMARK   11  A    between atoms: _22  and  _23
REMARK   12  A    between atoms: _22  and  _25
REMARK   13  A    between atoms: _25  and  _26
REMARK   14  A    between atoms: _29  and  _30
REMARK   15  A    between atoms: _35  and  _37
REMARK   16  A    between atoms: _37  and  _38
REMARK   17  A    between atoms: _37  and  _40
REMARK   18  A    between atoms: _40  and  _41
REMARK   19  A    between atoms: _46  and  _47
REMARK   20  A    between atoms: _49  and  _51
REMARK   21  A    between atoms: _51  and  _52
REMARK   22  A    between atoms: _51  and  _54
REMARK   23  A    between atoms: _54  and  _55
REMARK   24  A    between atoms: _55  and  _56
REMARK   25  A    between atoms: _56  and  _57
REMARK   26  A    between atoms: _57  and  _58
REMARK   27  A    between atoms: _62  and  _64
REMARK   28  A    between atoms: _64  and  _65
REMARK   29  A    between atoms: _64  and  _67
REMARK   30  A    between atoms: _67  and  _68
REMARK   31  A    between atoms: _73  and  _74
REMARK   32  A    between atoms: _76  and  _78
REMARK   33  A    between atoms: _78  and  _79
REMARK   34  A    between atoms: _81  and  _83
REMARK   35  A    between atoms: _83  and  _84
REMARK   36  A    between atoms: _87  and  _89
REMARK   37  A    between atoms: _89  and  _90
REMARK   38  A    between atoms: _89  and  _92
REMARK   39  A    between atoms: _92  and  _93
REMARK   40  A    between atoms: _103  and  _105
REMARK   41  A    between atoms: _105  and  _106
REMARK   42  A    between atoms: _105  and  _108
REMARK   43  A    between atoms: _108  and  _109
REMARK   44  A    between atoms: _109  and  _110
REMARK   45  A    between atoms: _112  and  _114
REMARK   46  A    between atoms: _114  and  _115
REMARK   47  A    between atoms: _114  and  _117
REMARK   48  A    between atoms: _120  and  _122
REMARK   49  A    between atoms: _122  and  _123
REMARK   50  A    between atoms: _127  and  _128
REMARK   51  A    between atoms: _133  and  _135
REMARK   52  A    between atoms: _135  and  _136
REMARK   53  A    between atoms: _135  and  _138
REMARK   54  A    between atoms: _138  and  _139
REMARK   55  A    between atoms: _142  and  _144
REMARK   56  A    between atoms: _144  and  _145
REMARK   57  A    between atoms: _144  and  _147
REMARK   58  A    between atoms: _147  and  _148
REMARK   59  A    between atoms: _151  and  _153
REMARK   60  A    between atoms: _153  and  _154
REMARK   61  A    between atoms: _153  and  _156
REMARK   62  A    between atoms: _156  and  _157
REMARK   63  A    between atoms: _160  and  _162
REMARK   64  A    between atoms: _162  and  _163
REMARK   65  A    between atoms: _162  and  _165
REMARK   66  A    between atoms: _165  and  _166
REMARK   67  A    between atoms: _169  and  _171
REMARK   68  A    between atoms: _171  and  _172
REMARK   69  A    between atoms: _171  and  _174
REMARK   70  A    between atoms: _174  and  _175
REMARK   71  A    between atoms: _175  and  _176
REMARK   72  A    between atoms: _176  and  _177
REMARK   73  A    between atoms: _186  and  _188
REMARK   74  A    between atoms: _188  and  _189
REMARK   75  A    between atoms: _188  and  _191
REMARK   76  A    between atoms: _191  and  _192
REMARK   77  A    between atoms: _198  and  _200
REMARK   78  A    between atoms: _200  and  _201
REMARK   79  A    between atoms: _200  and  _203
REMARK   80  A    between atoms: _203  and  _204
REMARK   81  A    between atoms: _210  and  _212
REMARK   82  A    between atoms: _212  and  _213
REMARK   83  A    between atoms: _212  and  _215
REMARK   84  A    between atoms: _215  and  _216
REMARK   85  A    between atoms: _219  and  _221
REMARK   86  A    between atoms: _221  and  _222
REMARK   87  A    between atoms: _224  and  _226
REMARK   88  A    between atoms: _226  and  _227
REMARK   89  A    between atoms: _226  and  _229
REMARK   90  A    between atoms: _229  and  _230
REMARK   91  A    between atoms: _233  and  _235
REMARK   92  A    between atoms: _235  and  _236
REMARK   93  A    between atoms: _235  and  _238
REMARK   94  A    between atoms: _238  and  _239
REMARK   95  A    between atoms: _241  and  _243
REMARK   96  A    between atoms: _243  and  _244
REMARK   97  A    between atoms: _243  and  _246
REMARK   98  A    between atoms: _246  and  _247
REMARK   99  A    between atoms: _247  and  _248
REMARK  100  A    between atoms: _250  and  _252
REMARK  101  A    between atoms: _252  and  _253
REMARK  102  A    between atoms: _252  and  _255
REMARK  103  A    between atoms: _255  and  _256
REMARK  104  A    between atoms: _259  and  _261
REMARK  105  A    between atoms: _261  and  _262
REMARK  106  A    between atoms: _261  and  _264
REMARK  107  A    between atoms: _264  and  _265
REMARK  108  A    between atoms: _268  and  _270
REMARK  109  A    between atoms: _270  and  _271
REMARK  110  A    between atoms: _270  and  _273
REMARK  111  A    between atoms: _273  and  _274
REMARK  112  A    between atoms: _277  and  _279
REMARK  113  A    between atoms: _279  and  _280
REMARK  114  A    between atoms: _279  and  _282
REMARK  115  A    between atoms: _282  and  _283
REMARK  116  A    between atoms: _285  and  _287
REMARK  117  A    between atoms: _287  and  _288
REMARK  118  A    between atoms: _290  and  _292
REMARK  119  A    between atoms: _292  and  _293
REMARK  120  A    between atoms: _292  and  _295
REMARK  121  A    between atoms: _295  and  _296
REMARK  122  A    between atoms: _298  and  _300
REMARK  123  A    between atoms: _300  and  _301
REMARK  124  A    between atoms: _300  and  _303
REMARK  125  A    between atoms: _303  and  _304
REMARK  126  A    between atoms: _307  and  _309
REMARK  127  A    between atoms: _309  and  _310
REMARK  128  A    between atoms: _309  and  _312
REMARK  129  A    between atoms: _312  and  _313
REMARK  130  A    between atoms: _313  and  _314
REMARK  131  A    between atoms: _314  and  _315
REMARK  132  A    between atoms: _315  and  _316
REMARK  133  A    between atoms: _320  and  _322
REMARK  134  A    between atoms: _322  and  _323
REMARK  135  A    between atoms: _322  and  _325
REMARK  136  A    between atoms: _325  and  _326
REMARK  137  A    between atoms: _326  and  _327
REMARK  138  A    between atoms: _330  and  _332
REMARK  139  A    between atoms: _332  and  _333
REMARK  140  A    between atoms: _332  and  _335
REMARK  141  A    between atoms: _335  and  _336
REMARK  142  A    between atoms: _342  and  _344
REMARK  143  A    between atoms: _344  and  _345
REMARK  144  A    between atoms: _344  and  _347
REMARK  145  A    between atoms: _347  and  _348
REMARK  146  A    between atoms: _354  and  _356
REMARK  147  A    between atoms: _356  and  _357
REMARK  148  A    between atoms: _356  and  _359
REMARK  149  A    between atoms: _362  and  _364
REMARK  150  A    between atoms: _364  and  _365
REMARK  151  A    between atoms: _364  and  _367
REMARK  152  A    between atoms: _367  and  _368
REMARK  153  A    between atoms: _371  and  _373
REMARK  154  A    between atoms: _373  and  _374
REMARK  155  A    between atoms: _373  and  _376
REMARK  156  A    between atoms: _376  and  _377
REMARK  157  A    between atoms: _380  and  _382
REMARK  158  A    between atoms: _382  and  _383
REMARK  159  A    between atoms: _386  and  _388
REMARK  160  A    between atoms: _388  and  _389
REMARK  161  A    between atoms: _391  and  _393
REMARK  162  A    between atoms: _393  and  _394
REMARK  163  A    between atoms: _393  and  _396
REMARK  164  A    between atoms: _399  and  _401
REMARK  165  A    between atoms: _401  and  _402
REMARK  166  A    between atoms: _401  and  _404
REMARK  167  A    between atoms: _404  and  _405
REMARK  168  A    between atoms: _411  and  _413
REMARK  169  A    between atoms: _413  and  _414
REMARK  170  A    between atoms: _413  and  _416
REMARK  171  A    between atoms: _416  and  _417
REMARK  172  A    between atoms: _420  and  _422
REMARK  173  A    between atoms: _422  and  _423
REMARK  174  A    between atoms: _422  and  _425
REMARK  175  A    between atoms: _425  and  _426
REMARK  176  A    between atoms: _429  and  _431
REMARK  177  A    between atoms: _431  and  _432
REMARK  178  A    between atoms: _431  and  _434
REMARK  179  A    between atoms: _434  and  _435
REMARK  180  A    between atoms: _435  and  _436
REMARK  181  A    between atoms: _439  and  _441
REMARK  182  A    between atoms: _441  and  _442
REMARK  183  A    between atoms: _441  and  _444
REMARK  184  A    between atoms: _444  and  _445
REMARK  185  A    between atoms: _447  and  _449
REMARK  186  A    between atoms: _449  and  _450
REMARK  187  A    between atoms: _449  and  _452
REMARK  188  A    between atoms: _452  and  _453
REMARK  189  A    between atoms: _456  and  _458
REMARK  190  A    between atoms: _458  and  _459
REMARK  191  A    between atoms: _458  and  _461
REMARK  192  A    between atoms: _461  and  _462
REMARK  193  A    between atoms: _462  and  _463
REMARK  194  A    between atoms: _465  and  _467
REMARK  195  A    between atoms: _467  and  _468
REMARK  196  A    between atoms: _467  and  _470
REMARK  197  A    between atoms: _470  and  _471
REMARK  198  A    between atoms: _476  and  _478
REMARK  199  A    between atoms: _478  and  _479
REMARK  200  A    between atoms: _478  and  _481
REMARK  201  A    between atoms: _481  and  _482
REMARK  202  A    between atoms: _487  and  _488
REMARK  203  A    between atoms: _490  and  _492
REMARK  204  A    between atoms: _492  and  _493
REMARK  205  A    between atoms: _492  and  _495
REMARK  206  A    between atoms: _495  and  _496
REMARK  207  A    between atoms: _499  and  _501
REMARK  208  A    between atoms: _501  and  _502
REMARK  209  A    between atoms: _501  and  _504
REMARK  210  A    between atoms: _504  and  _505
REMARK  211  A    between atoms: _505  and  _506
REMARK  212  A    between atoms: _506  and  _507
REMARK  213  A    between atoms: _507  and  _508
REMARK  214  A    between atoms: _512  and  _514
REMARK  215  A    between atoms: _514  and  _515
REMARK  216  A    between atoms: _517  and  _519
REMARK  217  A    between atoms: _519  and  _520
REMARK  218  A    between atoms: _519  and  _522
REMARK  219  A    between atoms: _522  and  _523
REMARK  220  A    between atoms: _528  and  _529
REMARK  221  A    between atoms: _531  and  _533
REMARK  222  A    between atoms: _533  and  _534
REMARK  223  A    between atoms: _536  and  _538
REMARK  224  A    between atoms: _538  and  _539
REMARK  225  A    between atoms: _538  and  _541
REMARK  226  A    between atoms: _541  and  _542
REMARK                            x       y       z     vdW  Elec       q    Type
REMARK                         _______ _______ _______ _____ _____    ______ ____
ROOT
ATOM      1  CA  MET A   1      22.478  -0.712  57.650  0.00  0.00    +0.134 C 
ENDROOT
BRANCH   1   2
ATOM      2  N   MET A   1      23.567   0.035  58.252  0.00  0.00    -0.239 NA
ATOM      3  H   MET A   1      24.083   0.726  57.671  0.00  0.00    +0.142 HD
ENDBRANCH   1   2
BRANCH   1   4
ATOM      4  C   MET A   1      23.079  -1.716  56.685  0.00  0.00    +0.224 C 
ATOM      5  O   MET A   1      23.898  -1.353  55.841  0.00  0.00    -0.287 OA
ENDBRANCH   1   4
BRANCH   1   6
ATOM      6  CB  MET A   1      21.550   0.226  56.874  0.00  0.00    +0.037 C 
BRANCH   6   7
ATOM      7  CG  MET A   1      20.451  -0.495  56.107  0.00  0.00    +0.059 C 
BRANCH   7   8
ATOM      8  SD  MET A   1      19.406   0.611  55.133  0.00  0.00    -0.139 S 
ATOM      9  CE  MET A   1      18.335   1.278  56.383  0.00  0.00    +0.069 C 
ENDBRANCH   7   8
ENDBRANCH   6   7
ENDBRANCH   1   6
TORSDOF 5
REMARK  Name = ../refined-set-2016/1syi/1syi_pocket.pdb
REMARK  226 active torsions:
REMARK  status: ('A' for Active; 'I' for Inactive)
REMARK    1  A    between atoms: _1  and  _3
REMARK    2  A    between atoms: _3  and  _4
REMARK    3  A    between atoms: _3  and  _6
REMARK    4  A    between atoms: _6  and  _7
REMARK    5  A    between atoms: _10  and  _12
REMARK    6  A    between atoms: _12  and  _13
REMARK    7  A    between atoms: _12  and  _15
REMARK    8  A    between atoms: _15  and  _16
REMARK    9  A    between atoms: _16  and  _17
REMARK   10  A    between atoms: _20  and  _22
REMARK   11  A    between atoms: _22  and  _23
REMARK   12  A    between atoms: _22  and  _25
REMARK   13  A    between atoms: _25  and  _26
REMARK   14  A    between atoms: _29  and  _30
REMARK   15  A    between atoms: _35  and  _37
REMARK   16  A    between atoms: _37  and  _38
REMARK   17  A    between atoms: _37  and  _40
REMARK   18  A    between atoms: _40  and  _41
REMARK   19  A    between atoms: _46  and  _47
REMARK   20  A    between atoms: _49  and  _51
REMARK   21  A    between atoms: _51  and  _52
REMARK   22  A    between atoms: _51  and  _54
REMARK   23  A    between atoms: _54  and  _55
REMARK   24  A    between atoms: _55  and  _56
REMARK   25  A    between atoms: _56  and  _57
REMARK   26  A    between atoms: _57  and  _58
REMARK   27  A    between atoms: _62  and  _64
REMARK   28  A    between atoms: _64  and  _65
REMARK   29  A    between atoms: _64  and  _67
REMARK   30  A    between atoms: _67  and  _68
REMARK   31  A    between atoms: _73  and  _74
REMARK   32  A    between atoms: _76  and  _78
REMARK   33  A    between atoms: _78  and  _79
REMARK   34  A    between atoms: _81  and  _83
REMARK   35  A    between atoms: _83  and  _84
REMARK   36  A    between atoms: _87  and  _89
REMARK   37  A    between atoms: _89  and  _90
REMARK   38  A    between atoms: _89  and  _92
REMARK   39  A    between atoms: _92  and  _93
REMARK   40  A    between atoms: _103  and  _105
REMARK   41  A    between atoms: _105  and  _106
REMARK   42  A    between atoms: _105  and  _108
REMARK   43  A    between atoms: _108  and  _109
REMARK   44  A    between atoms: _109  and  _110
REMARK   45  A    between atoms: _112  and  _114
REMARK   46  A    between atoms: _114  and  _115
REMARK   47  A    between atoms: _114  and  _117
REMARK   48  A    between atoms: _120  and  _122
REMARK   49  A    between atoms: _122  and  _123
REMARK   50  A    between atoms: _127  and  _128
REMARK   51  A    between atoms: _133  and  _135
REMARK   52  A    between atoms: _135  and  _136
REMARK   53  A    between atoms: _135  and  _138
REMARK   54  A    between atoms: _138  and  _139
REMARK   55  A    between atoms: _142  and  _144
REMARK   56  A    between atoms: _144  and  _145
REMARK   57  A    between atoms: _144  and  _147
REMARK   58  A    between atoms: _147  and  _148
REMARK   59  A    between atoms: _151  and  _153
REMARK   60  A    between atoms: _153  and  _154
REMARK   61  A    between atoms: _153  and  _156
REMARK   62  A    between atoms: _156  and  _157
REMARK   63  A    between atoms: _160  and  _162
REMARK   64  A    between atoms: _162  and  _163
REMARK   65  A    between atoms: _162  and  _165
REMARK   66  A    between atoms: _165  and  _166
REMARK   67  A    between atoms: _169  and  _171
REMARK   68  A    between atoms: _171  and  _172
REMARK   69  A    between atoms: _171  and  _174
REMARK   70  A    between atoms: _174  and  _175
REMARK   71  A    between atoms: _175  and  _176
REMARK   72  A    between atoms: _176  and  _177
REMARK   73  A    between atoms: _186  and  _188
REMARK   74  A    between atoms: _188  and  _189
REMARK   75  A    between atoms: _188  and  _191
REMARK   76  A    between atoms: _191  and  _192
REMARK   77  A    between atoms: _198  and  _200
REMARK   78  A    between atoms: _200  and  _201
REMARK   79  A    between atoms: _200  and  _203
REMARK   80  A    between atoms: _203  and  _204
REMARK   81  A    between atoms: _210  and  _212
REMARK   82  A    between atoms: _212  and  _213
REMARK   83  A    between atoms: _212  and  _215
REMARK   84  A    between atoms: _215  and  _216
REMARK   85  A    between atoms: _219  and  _221
REMARK   86  A    between atoms: _221  and  _222
REMARK   87  A    between atoms: _224  and  _226
REMARK   88  A    between atoms: _226  and  _227
REMARK   89  A    between atoms: _226  and  _229
REMARK   90  A    between atoms: _229  and  _230
REMARK   91  A    between atoms: _233  and  _235
REMARK   92  A    between atoms: _235  and  _236
REMARK   93  A    between atoms: _235  and  _238
REMARK   94  A    between atoms: _238  and  _239
REMARK   95  A    between atoms: _241  and  _243
REMARK   96  A    between atoms: _243  and  _244
REMARK   97  A    between atoms: _243  and  _246
REMARK   98  A    between atoms: _246  and  _247
REMARK   99  A    between atoms: _247  and  _248
REMARK  100  A    between atoms: _250  and  _252
REMARK  101  A    between atoms: _252  and  _253
REMARK  102  A    between atoms: _252  and  _255
REMARK  103  A    between atoms: _255  and  _256
REMARK  104  A    between atoms: _259  and  _261
REMARK  105  A    between atoms: _261  and  _262
REMARK  106  A    between atoms: _261  and  _264
REMARK  107  A    between atoms: _264  and  _265
REMARK  108  A    between atoms: _268  and  _270
REMARK  109  A    between atoms: _270  and  _271
REMARK  110  A    between atoms: _270  and  _273
REMARK  111  A    between atoms: _273  and  _274
REMARK  112  A    between atoms: _277  and  _279
REMARK  113  A    between atoms: _279  and  _280
REMARK  114  A    between atoms: _279  and  _282
REMARK  115  A    between atoms: _282  and  _283
REMARK  116  A    between atoms: _285  and  _287
REMARK  117  A    between atoms: _287  and  _288
REMARK  118  A    between atoms: _290  and  _292
REMARK  119  A    between atoms: _292  and  _293
REMARK  120  A    between atoms: _292  and  _295
REMARK  121  A    between atoms: _295  and  _296
REMARK  122  A    between atoms: _298  and  _300
REMARK  123  A    between atoms: _300  and  _301
REMARK  124  A    between atoms: _300  and  _303
REMARK  125  A    between atoms: _303  and  _304
REMARK  126  A    between atoms: _307  and  _309
REMARK  127  A    between atoms: _309  and  _310
REMARK  128  A    between atoms: _309  and  _312
REMARK  129  A    between atoms: _312  and  _313
REMARK  130  A    between atoms: _313  and  _314
REMARK  131  A    between atoms: _314  and  _315
REMARK  132  A    between atoms: _315  and  _316
REMARK  133  A    between atoms: _320  and  _322
REMARK  134  A    between atoms: _322  and  _323
REMARK  135  A    between atoms: _322  and  _325
REMARK  136  A    between atoms: _325  and  _326
REMARK  137  A    between atoms: _326  and  _327
REMARK  138  A    between atoms: _330  and  _332
REMARK  139  A    between atoms: _332  and  _333
REMARK  140  A    between atoms: _332  and  _335
REMARK  141  A    between atoms: _335  and  _336
REMARK  142  A    between atoms: _342  and  _344
REMARK  143  A    between atoms: _344  and  _345
REMARK  144  A    between atoms: _344  and  _347
REMARK  145  A    between atoms: _347  and  _348
REMARK  146  A    between atoms: _354  and  _356
REMARK  147  A    between atoms: _356  and  _357
REMARK  148  A    between atoms: _356  and  _359
REMARK  149  A    between atoms: _362  and  _364
REMARK  150  A    between atoms: _364  and  _365
REMARK  151  A    between atoms: _364  and  _367
REMARK  152  A    between atoms: _367  and  _368
REMARK  153  A    between atoms: _371  and  _373
REMARK  154  A    between atoms: _373  and  _374
REMARK  155  A    between atoms: _373  and  _376
REMARK  156  A    between atoms: _376  and  _377
REMARK  157  A    between atoms: _380  and  _382
REMARK  158  A    between atoms: _382  and  _383
REMARK  159  A    between atoms: _386  and  _388
REMARK  160  A    between atoms: _388  and  _389
REMARK  161  A    between atoms: _391  and  _393
REMARK  162  A    between atoms: _393  and  _394
REMARK  163  A    between atoms: _393  and  _396
REMARK  164  A    between atoms: _399  and  _401
REMARK  165  A    between atoms: _401  and  _402
REMARK  166  A    between atoms: _401  and  _404
REMARK  167  A    between atoms: _404  and  _405
REMARK  168  A    between atoms: _411  and  _413
REMARK  169  A    between atoms: _413  and  _414
REMARK  170  A    between atoms: _413  and  _416
REMARK  171  A    between atoms: _416  and  _417
REMARK  172  A    between atoms: _420  and  _422
REMARK  173  A    between atoms: _422  and  _423
REMARK  174  A    between atoms: _422  and  _425
REMARK  175  A    between atoms: _425  and  _426
REMARK  176  A    between atoms: _429  and  _431
REMARK  177  A    between atoms: _431  and  _432
REMARK  178  A    between atoms: _431  and  _434
REMARK  179  A    between atoms: _434  and  _435
REMARK  180  A    between atoms: _435  and  _436
REMARK  181  A    between atoms: _439  and  _441
REMARK  182  A    between atoms: _441  and  _442
REMARK  183  A    between atoms: _441  and  _444
REMARK  184  A    between atoms: _444  and  _445
REMARK  185  A    between atoms: _447  and  _449
REMARK  186  A    between atoms: _449  and  _450
REMARK  187  A    between atoms: _449  and  _452
REMARK  188  A    between atoms: _452  and  _453
REMARK  189  A    between atoms: _456  and  _458
REMARK  190  A    between atoms: _458  and  _459
REMARK  191  A    between atoms: _458  and  _461
REMARK  192  A    between atoms: _461  and  _462
REMARK  193  A    between atoms: _462  and  _463
REMARK  194  A    between atoms: _465  and  _467
REMARK  195  A    between atoms: _467  and  _468
REMARK  196  A    between atoms: _467  and  _470
REMARK  197  A    between atoms: _470  and  _471
REMARK  198  A    between atoms: _476  and  _478
REMARK  199  A    between atoms: _478  and  _479
REMARK  200  A    between atoms: _478  and  _481
REMARK  201  A    between atoms: _481  and  _482
REMARK  202  A    between atoms: _487  and  _488
REMARK  203  A    between atoms: _490  and  _492
REMARK  204  A    between atoms: _492  and  _493
REMARK  205  A    between atoms: _492  and  _495
REMARK  206  A    between atoms: _495  and  _496
REMARK  207  A    between atoms: _499  and  _501
REMARK  208  A    between atoms: _501  and  _502
REMARK  209  A    between atoms: _501  and  _504
REMARK  210  A    between atoms: _504  and  _505
REMARK  211  A    between atoms: _505  and  _506
REMARK  212  A    between atoms: _506  and  _507
REMARK  213  A    between atoms: _507  and  _508
REMARK  214  A    between atoms: _512  and  _514
REMARK  215  A    between atoms: _514  and  _515
REMARK  216  A    between atoms: _517  and  _519
REMARK  217  A    between atoms: _519  and  _520
REMARK  218  A    between atoms: _519  and  _522
REMARK  219  A    between atoms: _522  and  _523
REMARK  220  A    between atoms: _528  and  _529
REMARK  221  A    between atoms: _531  and  _533
REMARK  222  A    between atoms: _533  and  _534
REMARK  223  A    between atoms: _536  and  _538
REMARK  224  A    between atoms: _538  and  _539
REMARK  225  A    between atoms: _538  and  _541
REMARK  226  A    between atoms: _541  and  _542
REMARK                            x       y       z     vdW  Elec       q    Type
REMARK                         _______ _______ _______ _____ _____    ______ ____
ROOT
ATOM      1  CA  THR A   7      26.759  11.968  58.625  0.00  0.00    +0.176 C 
ENDROOT
BRANCH   1   4
ATOM      2  C   SER A   6      26.699  14.334  59.169  0.00  0.00    +0.243 C 
ATOM      3  O   SER A   6      27.768  14.257  59.772  0.00  0.00    -0.273 OA
ATOM      4  N   THR A   7      26.124  13.281  58.592  0.00  0.00    -0.295 N 
ATOM      5  H   THR A   7      25.209  13.396  58.111  0.00  0.00    +0.150 HD
BRANCH   2   6
ATOM      6  CA  SER A   6      25.961  15.664  59.067  0.00  0.00    +0.178 C 
BRANCH   6   8
ATOM      7  C   GLY A   5      25.725  15.814  56.649  0.00  0.00    +0.243 C 
ATOM      8  N   SER A   6      25.159  15.755  57.851  0.00  0.00    -0.295 N 
ATOM      9  H   SER A   6      24.122  15.774  57.926  0.00  0.00    +0.150 HD
ATOM     10  O   GLY A   5      26.946  15.789  56.484  0.00  0.00    -0.273 OA
BRANCH   7  11
ATOM     11  CA  GLY A   5      24.780  15.905  55.461  0.00  0.00    +0.176 C 
BRANCH  11  13
ATOM     12  C   SER A   4      25.168  15.591  53.094  0.00  0.00    +0.243 C 
ATOM     13  N   GLY A   5      25.429  16.261  54.212  0.00  0.00    -0.295 N 
ATOM     14  H   GLY A   5      26.106  17.050  54.192  0.00  0.00    +0.150 HD
ATOM     15  O   SER A   4      24.386  14.643  53.057  0.00  0.00    -0.273 OA
BRANCH  12  16
ATOM     16  CA  SER A   4      25.898  16.052  51.829  0.00  0.00    +0.178 C 
BRANCH  16  18
ATOM     17  C   ASP A   3      25.874  13.959  50.631  0.00  0.00    +0.241 C 
ATOM     18  N   SER A   4      26.580  14.924  51.203  0.00  0.00    -0.295 N 
ATOM     19  H   SER A   4      27.619  14.877  51.206  0.00  0.00    +0.150 HD
ATOM     20  O   ASP A   3      24.646  13.956  50.641  0.00  0.00    -0.273 OA
BRANCH  17  21
ATOM     21  CA  ASP A   3      26.622  12.792  49.991  0.00  0.00    +0.160 C 
BRANCH  21  24
ATOM     22  C   LEU A   2      25.575  11.416  51.614  0.00  0.00    +0.241 C 
ATOM     23  O   LEU A   2      26.349  11.862  52.463  0.00  0.00    -0.273 OA
ATOM     24  N   ASP A   3      25.659  11.761  50.334  0.00  0.00    -0.297 N 
ATOM     25  H   ASP A   3      25.062  11.313  49.610  0.00  0.00    +0.150 HD
BRANCH  22  26
ATOM     26  CA  LEU A   2      24.513  10.417  52.028  0.00  0.00    +0.149 C 
BRANCH  26  28
ATOM     27  C   THR A   1      26.122   8.641  52.338  0.00  0.00    +0.241 C 
ATOM     28  N   LEU A   2      25.214   9.455  52.861  0.00  0.00    -0.297 N 
ATOM     29  H   LEU A   2      25.002   9.404  53.878  0.00  0.00    +0.150 HD
ATOM     30  O   THR A   1      26.379   8.599  51.137  0.00  0.00    -0.274 OA
BRANCH  27  31
ATOM     31  CA  THR A   1      26.837   7.728  53.306  0.00  0.00    +0.172 C 
BRANCH  31  32
ATOM     32  N   THR A   1      27.796   6.947  52.533  0.00  0.00    -0.236 NA
ATOM     33  H   THR A   1      28.278   7.392  51.726  0.00  0.00    +0.142 HD
ENDBRANCH  31  32
BRANCH  31  34
ATOM     34  CB  THR A   1      27.541   8.631  54.338  0.00  0.00    +0.135 C 
ATOM     35  CG2 THR A   1      28.469   7.815  55.229  0.00  0.00    +0.034 C 
BRANCH  34  36
ATOM     36  OG1 THR A   1      28.314   9.620  53.643  0.00  0.00    -0.383 OA
ATOM     37  HG1 THR A   1      27.715  10.166  53.075  0.00  0.00    +0.210 HD
ENDBRANCH  34  36
ENDBRANCH  31  34
ENDBRANCH  27  31
ENDBRANCH  26  28
BRANCH  26  38
ATOM     38  CB  LEU A   2      23.487  11.201  52.837  0.00  0.00    +0.029 C 
BRANCH  38  39
ATOM     39  CG  LEU A   2      22.040  10.791  53.068  0.00  0.00    +0.002 C 
ATOM     40  CD2 LEU A   2      21.424  11.788  54.033  0.00  0.00    +0.000 C 
ATOM     41  CD1 LEU A   2      21.273  10.781  51.758  0.00  0.00    +0.000 C 
ENDBRANCH  38  39
ENDBRANCH  26  38
ENDBRANCH  22  26
ENDBRANCH  21  24
BRANCH  21  42
ATOM     42  CB  ASP A   3      26.755  12.986  48.472  0.00  0.00    +0.143 C 
BRANCH  42  43
ATOM     43  CG  ASP A   3      25.472  13.471  47.818  0.00  0.00    +0.367 C 
ATOM     44  OD2 ASP A   3      24.876  14.461  48.291  0.00  0.00    -0.246 OA
ATOM     45  OD1 ASP A   3      25.065  12.861  46.807  0.00  0.00    -0.246 OA
ENDBRANCH  42  43
ENDBRANCH  21  42
ENDBRANCH  17  21
ENDBRANCH  16  18
BRANCH  16  46
ATOM     46  CB  SER A   4      24.895  16.660  50.837  0.00  0.00    +0.166 C 
BRANCH  46  47
ATOM     47  OG  SER A   4      24.172  17.741  51.394  0.00  0.00    -0.380 OA
ATOM     48  H   SER A   4      23.667  17.426  52.185  0.00  0.00    +0.211 HD
ENDBRANCH  46  47
ENDBRANCH  16  46
ENDBRANCH  12  16
ENDBRANCH  11  13
ENDBRANCH   7  11
ENDBRANCH   6   8
BRANCH   6  49
ATOM     49  CB  SER A   6      25.077  15.855  60.307  0.00  0.00    +0.166 C 
BRANCH  49  50
ATOM     50  OG  SER A   6      24.178  14.775  60.458  0.00  0.00    -0.380 OA
ATOM     51  H   SER A   6      24.689  13.933  60.558  0.00  0.00    +0.211 HD
ENDBRANCH  49  50
ENDBRANCH   6  49
ENDBRANCH   2   6
ENDBRANCH   1   4
BRANCH   1  52
ATOM     52  C   THR A   7      28.072  12.031  57.855  0.00  0.00    +0.243 C 
ATOM     53  O   THR A   7      29.131  11.677  58.380  0.00  0.00    -0.273 OA
ATOM     54  N   LYS A   8      27.992  12.477  56.602  0.00  0.00    -0.297 N 
ATOM     55  H   LYS A   8      27.063  12.744  56.218  0.00  0.00    +0.150 HD
BRANCH  54  56
ATOM     56  CA  LYS A   8      29.172  12.601  55.755  0.00  0.00    +0.149 C 
BRANCH  56  57
ATOM     57  C   LYS A   8      30.227  13.481  56.423  0.00  0.00    +0.241 C 
ATOM     58  N   GLU A   9      29.791  14.575  57.044  0.00  0.00    -0.297 N 
ATOM     59  H   GLU A   9      28.773  14.788  57.048  0.00  0.00    +0.150 HD
ATOM     60  O   LYS A   8      31.419  13.167  56.381  0.00  0.00    -0.273 OA
BRANCH  58  61
ATOM     61  CA  GLU A   9      30.717  15.482  57.721  0.00  0.00    +0.149 C 
BRANCH  61  62
ATOM     62  C   GLU A   9      31.437  14.805  58.882  0.00  0.00    +0.241 C 
ATOM     63  N   PHE A  10      30.708  13.972  59.615  0.00  0.00    -0.297 N 
ATOM     64  H   PHE A  10      29.702  13.839  59.386  0.00  0.00    +0.150 HD
ATOM     65  O   GLU A   9      32.628  15.037  59.110  0.00  0.00    -0.273 OA
BRANCH  63  66
ATOM     66  CA  PHE A  10      31.287  13.240  60.734  0.00  0.00    +0.153 C 
BRANCH  66  67
ATOM     67  C   PHE A  10      32.553  12.513  60.289  0.00  0.00    +0.241 C 
ATOM     68  O   PHE A  10      33.600  12.629  60.912  0.00  0.00    -0.273 OA
ATOM     69  N   PHE A  11      32.447  11.750  59.208  0.00  0.00    -0.298 N 
ATOM     70  H   PHE A  11      31.532  11.688  58.717  0.00  0.00    +0.150 HD
BRANCH  69  71
ATOM     71  CA  PHE A  11      33.582  10.998  58.695  0.00  0.00    +0.141 C 
BRANCH  71  72
ATOM     72  C   PHE A  11      34.651  11.907  58.105  0.00  0.00    +0.227 C 
ATOM     73  O   PHE A  11      35.845  11.688  58.312  0.00  0.00    -0.286 OA
ENDBRANCH  71  72
BRANCH  71  74
ATOM     74  CB  PHE A  11      33.101   9.994  57.646  0.00  0.00    +0.054 C 
BRANCH  74  75
ATOM     75  CG  PHE A  11      32.340   8.833  58.229  0.00  0.00    -0.020 A 
ATOM     76  CD2 PHE A  11      33.018   7.784  58.847  0.00  0.00    -0.004 A 
ATOM     77  CE2 PHE A  11      32.325   6.732  59.433  0.00  0.00    -0.000 A 
ATOM     78  CZ  PHE A  11      30.937   6.720  59.404  0.00  0.00    -0.000 A 
ATOM     79  CE1 PHE A  11      30.248   7.763  58.784  0.00  0.00    -0.000 A 
ATOM     80  CD1 PHE A  11      30.952   8.810  58.202  0.00  0.00    -0.004 A 
ENDBRANCH  74  75
ENDBRANCH  71  74
ENDBRANCH  69  71
ENDBRANCH  66  67
BRANCH  66  81
ATOM     81  CB  PHE A  10      30.288  12.208  61.259  0.00  0.00    +0.055 C 
BRANCH  81  82
ATOM     82  CG  PHE A  10      30.826  11.354  62.372  0.00  0.00    -0.020 A 
ATOM     83  CD2 PHE A  10      30.871  11.834  63.677  0.00  0.00    -0.004 A 
ATOM     84  CE2 PHE A  10      31.369  11.037  64.715  0.00  0.00    -0.000 A 
ATOM     85  CZ  PHE A  10      31.825   9.752  64.445  0.00  0.00    -0.000 A 
ATOM     86  CE1 PHE A  10      31.787   9.265  63.145  0.00  0.00    -0.000 A 
ATOM     87  CD1 PHE A  10      31.289  10.067  62.115  0.00  0.00    -0.004 A 
ENDBRANCH  81  82
ENDBRANCH  66  81
ENDBRANCH  63  66
ENDBRANCH  61  62
BRANCH  61  88
ATOM     88  CB  GLU A   9      29.977  16.725  58.224  0.00  0.00    +0.041 C 
BRANCH  88  89
ATOM     89  CG  GLU A   9      29.737  17.754  57.139  0.00  0.00    +0.116 C 
BRANCH  89  90
ATOM     90  CD  GLU A   9      31.026  18.135  56.436  0.00  0.00    +0.365 C 
ATOM     91  OE2 GLU A   9      31.936  18.670  57.107  0.00  0.00    -0.246 OA
ATOM     92  OE1 GLU A   9      31.133  17.890  55.217  0.00  0.00    -0.246 OA
ENDBRANCH  89  90
ENDBRANCH  88  89
ENDBRANCH  61  88
ENDBRANCH  58  61
ENDBRANCH  56  57
BRANCH  56  93
ATOM     93  CB  LYS A   8      28.787  13.185  54.393  0.00  0.00    +0.029 C 
BRANCH  93  94
ATOM     94  CG  LYS A   8      29.950  13.356  53.434  0.00  0.00    +0.000 C 
BRANCH  94  95
ATOM     95  CD  LYS A   8      29.467  13.784  52.049  0.00  0.00    -0.024 C 
BRANCH  95  96
ATOM     96  CE  LYS A   8      30.636  14.009  51.102  0.00  0.00    -0.086 C 
BRANCH  96  97
ATOM     97  NZ  LYS A   8      30.203  14.335  49.712  0.00  0.00    +0.380 N 
ATOM     98  HZ1 LYS A   8      29.632  15.204  49.723  0.00  0.00    -0.089 HD
ATOM     99  HZ2 LYS A   8      29.635  13.550  49.334  0.00  0.00    -0.089 HD
ATOM    100  HZ3 LYS A   8      31.041  14.477  49.113  0.00  0.00    -0.089 HD
ENDBRANCH  96  97
ENDBRANCH  95  96
ENDBRANCH  94  95
ENDBRANCH  93  94
ENDBRANCH  56  93
ENDBRANCH  54  56
ENDBRANCH   1  52
BRANCH   1 101
ATOM    101  CB  THR A   7      25.866  10.890  57.987  0.00  0.00    +0.137 C 
ATOM    102  CG2 THR A   7      26.553   9.535  58.035  0.00  0.00    +0.034 C 
BRANCH 101 103
ATOM    103  OG1 THR A   7      24.631  10.809  58.703  0.00  0.00    -0.382 OA
ATOM    104  HG1 THR A   7      24.171  11.685  58.665  0.00  0.00    +0.210 HD
ENDBRANCH 101 103
ENDBRANCH   1 101
TORSDOF 46
REMARK  Name = ../refined-set-2016/1syi/1syi_pocket.pdb
REMARK  226 active torsions:
REMARK  status: ('A' for Active; 'I' for Inactive)
REMARK    1  A    between atoms: _1  and  _3
REMARK    2  A    between atoms: _3  and  _4
REMARK    3  A    between atoms: _3  and  _6
REMARK    4  A    between atoms: _6  and  _7
REMARK    5  A    between atoms: _10  and  _12
REMARK    6  A    between atoms: _12  and  _13
REMARK    7  A    between atoms: _12  and  _15
REMARK    8  A    between atoms: _15  and  _16
REMARK    9  A    between atoms: _16  and  _17
REMARK   10  A    between atoms: _20  and  _22
REMARK   11  A    between atoms: _22  and  _23
REMARK   12  A    between atoms: _22  and  _25
REMARK   13  A    between atoms: _25  and  _26
REMARK   14  A    between atoms: _29  and  _30
REMARK   15  A    between atoms: _35  and  _37
REMARK   16  A    between atoms: _37  and  _38
REMARK   17  A    between atoms: _37  and  _40
REMARK   18  A    between atoms: _40  and  _41
REMARK   19  A    between atoms: _46  and  _47
REMARK   20  A    between atoms: _49  and  _51
REMARK   21  A    between atoms: _51  and  _52
REMARK   22  A    between atoms: _51  and  _54
REMARK   23  A    between atoms: _54  and  _55
REMARK   24  A    between atoms: _55  and  _56
REMARK   25  A    between atoms: _56  and  _57
REMARK   26  A    between atoms: _57  and  _58
REMARK   27  A    between atoms: _62  and  _64
REMARK   28  A    between atoms: _64  and  _65
REMARK   29  A    between atoms: _64  and  _67
REMARK   30  A    between atoms: _67  and  _68
REMARK   31  A    between atoms: _73  and  _74
REMARK   32  A    between atoms: _76  and  _78
REMARK   33  A    between atoms: _78  and  _79
REMARK   34  A    between atoms: _81  and  _83
REMARK   35  A    between atoms: _83  and  _84
REMARK   36  A    between atoms: _87  and  _89
REMARK   37  A    between atoms: _89  and  _90
REMARK   38  A    between atoms: _89  and  _92
REMARK   39  A    between atoms: _92  and  _93
REMARK   40  A    between atoms: _103  and  _105
REMARK   41  A    between atoms: _105  and  _106
REMARK   42  A    between atoms: _105  and  _108
REMARK   43  A    between atoms: _108  and  _109
REMARK   44  A    between atoms: _109  and  _110
REMARK   45  A    between atoms: _112  and  _114
REMARK   46  A    between atoms: _114  and  _115
REMARK   47  A    between atoms: _114  and  _117
REMARK   48  A    between atoms: _120  and  _122
REMARK   49  A    between atoms: _122  and  _123
REMARK   50  A    between atoms: _127  and  _128
REMARK   51  A    between atoms: _133  and  _135
REMARK   52  A    between atoms: _135  and  _136
REMARK   53  A    between atoms: _135  and  _138
REMARK   54  A    between atoms: _138  and  _139
REMARK   55  A    between atoms: _142  and  _144
REMARK   56  A    between atoms: _144  and  _145
REMARK   57  A    between atoms: _144  and  _147
REMARK   58  A    between atoms: _147  and  _148
REMARK   59  A    between atoms: _151  and  _153
REMARK   60  A    between atoms: _153  and  _154
REMARK   61  A    between atoms: _153  and  _156
REMARK   62  A    between atoms: _156  and  _157
REMARK   63  A    between atoms: _160  and  _162
REMARK   64  A    between atoms: _162  and  _163
REMARK   65  A    between atoms: _162  and  _165
REMARK   66  A    between atoms: _165  and  _166
REMARK   67  A    between atoms: _169  and  _171
REMARK   68  A    between atoms: _171  and  _172
REMARK   69  A    between atoms: _171  and  _174
REMARK   70  A    between atoms: _174  and  _175
REMARK   71  A    between atoms: _175  and  _176
REMARK   72  A    between atoms: _176  and  _177
REMARK   73  A    between atoms: _186  and  _188
REMARK   74  A    between atoms: _188  and  _189
REMARK   75  A    between atoms: _188  and  _191
REMARK   76  A    between atoms: _191  and  _192
REMARK   77  A    between atoms: _198  and  _200
REMARK   78  A    between atoms: _200  and  _201
REMARK   79  A    between atoms: _200  and  _203
REMARK   80  A    between atoms: _203  and  _204
REMARK   81  A    between atoms: _210  and  _212
REMARK   82  A    between atoms: _212  and  _213
REMARK   83  A    between atoms: _212  and  _215
REMARK   84  A    between atoms: _215  and  _216
REMARK   85  A    between atoms: _219  and  _221
REMARK   86  A    between atoms: _221  and  _222
REMARK   87  A    between atoms: _224  and  _226
REMARK   88  A    between atoms: _226  and  _227
REMARK   89  A    between atoms: _226  and  _229
REMARK   90  A    between atoms: _229  and  _230
REMARK   91  A    between atoms: _233  and  _235
REMARK   92  A    between atoms: _235  and  _236
REMARK   93  A    between atoms: _235  and  _238
REMARK   94  A    between atoms: _238  and  _239
REMARK   95  A    between atoms: _241  and  _243
REMARK   96  A    between atoms: _243  and  _244
REMARK   97  A    between atoms: _243  and  _246
REMARK   98  A    between atoms: _246  and  _247
REMARK   99  A    between atoms: _247  and  _248
REMARK  100  A    between atoms: _250  and  _252
REMARK  101  A    between atoms: _252  and  _253
REMARK  102  A    between atoms: _252  and  _255
REMARK  103  A    between atoms: _255  and  _256
REMARK  104  A    between atoms: _259  and  _261
REMARK  105  A    between atoms: _261  and  _262
REMARK  106  A    between atoms: _261  and  _264
REMARK  107  A    between atoms: _264  and  _265
REMARK  108  A    between atoms: _268  and  _270
REMARK  109  A    between atoms: _270  and  _271
REMARK  110  A    between atoms: _270  and  _273
REMARK  111  A    between atoms: _273  and  _274
REMARK  112  A    between atoms: _277  and  _279
REMARK  113  A    between atoms: _279  and  _280
REMARK  114  A    between atoms: _279  and  _282
REMARK  115  A    between atoms: _282  and  _283
REMARK  116  A    between atoms: _285  and  _287
REMARK  117  A    between atoms: _287  and  _288
REMARK  118  A    between atoms: _290  and  _292
REMARK  119  A    between atoms: _292  and  _293
REMARK  120  A    between atoms: _292  and  _295
REMARK  121  A    between atoms: _295  and  _296
REMARK  122  A    between atoms: _298  and  _300
REMARK  123  A    between atoms: _300  and  _301
REMARK  124  A    between atoms: _300  and  _303
REMARK  125  A    between atoms: _303  and  _304
REMARK  126  A    between atoms: _307  and  _309
REMARK  127  A    between atoms: _309  and  _310
REMARK  128  A    between atoms: _309  and  _312
REMARK  129  A    between atoms: _312  and  _313
REMARK  130  A    between atoms: _313  and  _314
REMARK  131  A    between atoms: _314  and  _315
REMARK  132  A    between atoms: _315  and  _316
REMARK  133  A    between atoms: _320  and  _322
REMARK  134  A    between atoms: _322  and  _323
REMARK  135  A    between atoms: _322  and  _325
REMARK  136  A    between atoms: _325  and  _326
REMARK  137  A    between atoms: _326  and  _327
REMARK  138  A    between atoms: _330  and  _332
REMARK  139  A    between atoms: _332  and  _333
REMARK  140  A    between atoms: _332  and  _335
REMARK  141  A    between atoms: _335  and  _336
REMARK  142  A    between atoms: _342  and  _344
REMARK  143  A    between atoms: _344  and  _345
REMARK  144  A    between atoms: _344  and  _347
REMARK  145  A    between atoms: _347  and  _348
REMARK  146  A    between atoms: _354  and  _356
REMARK  147  A    between atoms: _356  and  _357
REMARK  148  A    between atoms: _356  and  _359
REMARK  149  A    between atoms: _362  and  _364
REMARK  150  A    between atoms: _364  and  _365
REMARK  151  A    between atoms: _364  and  _367
REMARK  152  A    between atoms: _367  and  _368
REMARK  153  A    between atoms: _371  and  _373
REMARK  154  A    between atoms: _373  and  _374
REMARK  155  A    between atoms: _373  and  _376
REMARK  156  A    between atoms: _376  and  _377
REMARK  157  A    between atoms: _380  and  _382
REMARK  158  A    between atoms: _382  and  _383
REMARK  159  A    between atoms: _386  and  _388
REMARK  160  A    between atoms: _388  and  _389
REMARK  161  A    between atoms: _391  and  _393
REMARK  162  A    between atoms: _393  and  _394
REMARK  163  A    between atoms: _393  and  _396
REMARK  164  A    between atoms: _399  and  _401
REMARK  165  A    between atoms: _401  and  _402
REMARK  166  A    between atoms: _401  and  _404
REMARK  167  A    between atoms: _404  and  _405
REMARK  168  A    between atoms: _411  and  _413
REMARK  169  A    between atoms: _413  and  _414
REMARK  170  A    between atoms: _413  and  _416
REMARK  171  A    between atoms: _416  and  _417
REMARK  172  A    between atoms: _420  and  _422
REMARK  173  A    between atoms: _422  and  _423
REMARK  174  A    between atoms: _422  and  _425
REMARK  175  A    between atoms: _425  and  _426
REMARK  176  A    between atoms: _429  and  _431
REMARK  177  A    between atoms: _431  and  _432
REMARK  178  A    between atoms: _431  and  _434
REMARK  179  A    between atoms: _434  and  _435
REMARK  180  A    between atoms: _435  and  _436
REMARK  181  A    between atoms: _439  and  _441
REMARK  182  A    between atoms: _441  and  _442
REMARK  183  A    between atoms: _441  and  _444
REMARK  184  A    between atoms: _444  and  _445
REMARK  185  A    between atoms: _447  and  _449
REMARK  186  A    between atoms: _449  and  _450
REMARK  187  A    between atoms: _449  and  _452
REMARK  188  A    between atoms: _452  and  _453
REMARK  189  A    between atoms: _456  and  _458
REMARK  190  A    between atoms: _458  and  _459
REMARK  191  A    between atoms: _458  and  _461
REMARK  192  A    between atoms: _461  and  _462
REMARK  193  A    between atoms: _462  and  _463
REMARK  194  A    between atoms: _465  and  _467
REMARK  195  A    between atoms: _467  and  _468
REMARK  196  A    between atoms: _467  and  _470
REMARK  197  A    between atoms: _470  and  _471
REMARK  198  A    between atoms: _476  and  _478
REMARK  199  A    between atoms: _478  and  _479
REMARK  200  A    between atoms: _478  and  _481
REMARK  201  A    between atoms: _481  and  _482
REMARK  202  A    between atoms: _487  and  _488
REMARK  203  A    between atoms: _490  and  _492
REMARK  204  A    between atoms: _492  and  _493
REMARK  205  A    between atoms: _492  and  _495
REMARK  206  A    between atoms: _495  and  _496
REMARK  207  A    between atoms: _499  and  _501
REMARK  208  A    between atoms: _501  and  _502
REMARK  209  A    between atoms: _501  and  _504
REMARK  210  A    between atoms: _504  and  _505
REMARK  211  A    between atoms: _505  and  _506
REMARK  212  A    between atoms: _506  and  _507
REMARK  213  A    between atoms: _507  and  _508
REMARK  214  A    between atoms: _512  and  _514
REMARK  215  A    between atoms: _514  and  _515
REMARK  216  A    between atoms: _517  and  _519
REMARK  217  A    between atoms: _519  and  _520
REMARK  218  A    between atoms: _519  and  _522
REMARK  219  A    between atoms: _522  and  _523
REMARK  220  A    between atoms: _528  and  _529
REMARK  221  A    between atoms: _531  and  _533
REMARK  222  A    between atoms: _533  and  _534
REMARK  223  A    between atoms: _536  and  _538
REMARK  224  A    between atoms: _538  and  _539
REMARK  225  A    between atoms: _538  and  _541
REMARK  226  A    between atoms: _541  and  _542
REMARK                            x       y       z     vdW  Elec       q    Type
REMARK                         _______ _______ _______ _____ _____    ______ ____
ROOT
ATOM      1  CA  VAL A   1      24.044   8.668  47.495  0.00  0.00    +0.133 C 
ENDROOT
BRANCH   1   2
ATOM      2  CB  VAL A   1      23.102   7.566  48.039  0.00  0.00    +0.023 C 
ATOM      3  CG2 VAL A   1      22.781   7.823  49.505  0.00  0.00    +0.002 C 
ATOM      4  CG1 VAL A   1      23.753   6.200  47.862  0.00  0.00    +0.002 C 
ENDBRANCH   1   2
BRANCH   1   5
ATOM      5  N   VAL A   1      25.345   8.630  48.150  0.00  0.00    -0.239 NA
ATOM      6  H   VAL A   1      25.424   8.916  49.147  0.00  0.00    +0.142 HD
ENDBRANCH   1   5
BRANCH   1   7
ATOM      7  C   VAL A   1      23.432  10.038  47.739  0.00  0.00    +0.224 C 
ATOM      8  O   VAL A   1      23.854  10.754  48.649  0.00  0.00    -0.287 OA
ENDBRANCH   1   7
TORSDOF 3
REMARK  Name = ../refined-set-2016/1syi/1syi_pocket.pdb
REMARK  226 active torsions:
REMARK  status: ('A' for Active; 'I' for Inactive)
REMARK    1  A    between atoms: _1  and  _3
REMARK    2  A    between atoms: _3  and  _4
REMARK    3  A    between atoms: _3  and  _6
REMARK    4  A    between atoms: _6  and  _7
REMARK    5  A    between atoms: _10  and  _12
REMARK    6  A    between atoms: _12  and  _13
REMARK    7  A    between atoms: _12  and  _15
REMARK    8  A    between atoms: _15  and  _16
REMARK    9  A    between atoms: _16  and  _17
REMARK   10  A    between atoms: _20  and  _22
REMARK   11  A    between atoms: _22  and  _23
REMARK   12  A    between atoms: _22  and  _25
REMARK   13  A    between atoms: _25  and  _26
REMARK   14  A    between atoms: _29  and  _30
REMARK   15  A    between atoms: _35  and  _37
REMARK   16  A    between atoms: _37  and  _38
REMARK   17  A    between atoms: _37  and  _40
REMARK   18  A    between atoms: _40  and  _41
REMARK   19  A    between atoms: _46  and  _47
REMARK   20  A    between atoms: _49  and  _51
REMARK   21  A    between atoms: _51  and  _52
REMARK   22  A    between atoms: _51  and  _54
REMARK   23  A    between atoms: _54  and  _55
REMARK   24  A    between atoms: _55  and  _56
REMARK   25  A    between atoms: _56  and  _57
REMARK   26  A    between atoms: _57  and  _58
REMARK   27  A    between atoms: _62  and  _64
REMARK   28  A    between atoms: _64  and  _65
REMARK   29  A    between atoms: _64  and  _67
REMARK   30  A    between atoms: _67  and  _68
REMARK   31  A    between atoms: _73  and  _74
REMARK   32  A    between atoms: _76  and  _78
REMARK   33  A    between atoms: _78  and  _79
REMARK   34  A    between atoms: _81  and  _83
REMARK   35  A    between atoms: _83  and  _84
REMARK   36  A    between atoms: _87  and  _89
REMARK   37  A    between atoms: _89  and  _90
REMARK   38  A    between atoms: _89  and  _92
REMARK   39  A    between atoms: _92  and  _93
REMARK   40  A    between atoms: _103  and  _105
REMARK   41  A    between atoms: _105  and  _106
REMARK   42  A    between atoms: _105  and  _108
REMARK   43  A    between atoms: _108  and  _109
REMARK   44  A    between atoms: _109  and  _110
REMARK   45  A    between atoms: _112  and  _114
REMARK   46  A    between atoms: _114  and  _115
REMARK   47  A    between atoms: _114  and  _117
REMARK   48  A    between atoms: _120  and  _122
REMARK   49  A    between atoms: _122  and  _123
REMARK   50  A    between atoms: _127  and  _128
REMARK   51  A    between atoms: _133  and  _135
REMARK   52  A    between atoms: _135  and  _136
REMARK   53  A    between atoms: _135  and  _138
REMARK   54  A    between atoms: _138  and  _139
REMARK   55  A    between atoms: _142  and  _144
REMARK   56  A    between atoms: _144  and  _145
REMARK   57  A    between atoms: _144  and  _147
REMARK   58  A    between atoms: _147  and  _148
REMARK   59  A    between atoms: _151  and  _153
REMARK   60  A    between atoms: _153  and  _154
REMARK   61  A    between atoms: _153  and  _156
REMARK   62  A    between atoms: _156  and  _157
REMARK   63  A    between atoms: _160  and  _162
REMARK   64  A    between atoms: _162  and  _163
REMARK   65  A    between atoms: _162  and  _165
REMARK   66  A    between atoms: _165  and  _166
REMARK   67  A    between atoms: _169  and  _171
REMARK   68  A    between atoms: _171  and  _172
REMARK   69  A    between atoms: _171  and  _174
REMARK   70  A    between atoms: _174  and  _175
REMARK   71  A    between atoms: _175  and  _176
REMARK   72  A    between atoms: _176  and  _177
REMARK   73  A    between atoms: _186  and  _188
REMARK   74  A    between atoms: _188  and  _189
REMARK   75  A    between atoms: _188  and  _191
REMARK   76  A    between atoms: _191  and  _192
REMARK   77  A    between atoms: _198  and  _200
REMARK   78  A    between atoms: _200  and  _201
REMARK   79  A    between atoms: _200  and  _203
REMARK   80  A    between atoms: _203  and  _204
REMARK   81  A    between atoms: _210  and  _212
REMARK   82  A    between atoms: _212  and  _213
REMARK   83  A    between atoms: _212  and  _215
REMARK   84  A    between atoms: _215  and  _216
REMARK   85  A    between atoms: _219  and  _221
REMARK   86  A    between atoms: _221  and  _222
REMARK   87  A    between atoms: _224  and  _226
REMARK   88  A    between atoms: _226  and  _227
REMARK   89  A    between atoms: _226  and  _229
REMARK   90  A    between atoms: _229  and  _230
REMARK   91  A    between atoms: _233  and  _235
REMARK   92  A    between atoms: _235  and  _236
REMARK   93  A    between atoms: _235  and  _238
REMARK   94  A    between atoms: _238  and  _239
REMARK   95  A    between atoms: _241  and  _243
REMARK   96  A    between atoms: _243  and  _244
REMARK   97  A    between atoms: _243  and  _246
REMARK   98  A    between atoms: _246  and  _247
REMARK   99  A    between atoms: _247  and  _248
REMARK  100  A    between atoms: _250  and  _252
REMARK  101  A    between atoms: _252  and  _253
REMARK  102  A    between atoms: _252  and  _255
REMARK  103  A    between atoms: _255  and  _256
REMARK  104  A    between atoms: _259  and  _261
REMARK  105  A    between atoms: _261  and  _262
REMARK  106  A    between atoms: _261  and  _264
REMARK  107  A    between atoms: _264  and  _265
REMARK  108  A    between atoms: _268  and  _270
REMARK  109  A    between atoms: _270  and  _271
REMARK  110  A    between atoms: _270  and  _273
REMARK  111  A    between atoms: _273  and  _274
REMARK  112  A    between atoms: _277  and  _279
REMARK  113  A    between atoms: _279  and  _280
REMARK  114  A    between atoms: _279  and  _282
REMARK  115  A    between atoms: _282  and  _283
REMARK  116  A    between atoms: _285  and  _287
REMARK  117  A    between atoms: _287  and  _288
REMARK  118  A    between atoms: _290  and  _292
REMARK  119  A    between atoms: _292  and  _293
REMARK  120  A    between atoms: _292  and  _295
REMARK  121  A    between atoms: _295  and  _296
REMARK  122  A    between atoms: _298  and  _300
REMARK  123  A    between atoms: _300  and  _301
REMARK  124  A    between atoms: _300  and  _303
REMARK  125  A    between atoms: _303  and  _304
REMARK  126  A    between atoms: _307  and  _309
REMARK  127  A    between atoms: _309  and  _310
REMARK  128  A    between atoms: _309  and  _312
REMARK  129  A    between atoms: _312  and  _313
REMARK  130  A    between atoms: _313  and  _314
REMARK  131  A    between atoms: _314  and  _315
REMARK  132  A    between atoms: _315  and  _316
REMARK  133  A    between atoms: _320  and  _322
REMARK  134  A    between atoms: _322  and  _323
REMARK  135  A    between atoms: _322  and  _325
REMARK  136  A    between atoms: _325  and  _326
REMARK  137  A    between atoms: _326  and  _327
REMARK  138  A    between atoms: _330  and  _332
REMARK  139  A    between atoms: _332  and  _333
REMARK  140  A    between atoms: _332  and  _335
REMARK  141  A    between atoms: _335  and  _336
REMARK  142  A    between atoms: _342  and  _344
REMARK  143  A    between atoms: _344  and  _345
REMARK  144  A    between atoms: _344  and  _347
REMARK  145  A    between atoms: _347  and  _348
REMARK  146  A    between atoms: _354  and  _356
REMARK  147  A    between atoms: _356  and  _357
REMARK  148  A    between atoms: _356  and  _359
REMARK  149  A    between atoms: _362  and  _364
REMARK  150  A    between atoms: _364  and  _365
REMARK  151  A    between atoms: _364  and  _367
REMARK  152  A    between atoms: _367  and  _368
REMARK  153  A    between atoms: _371  and  _373
REMARK  154  A    between atoms: _373  and  _374
REMARK  155  A    between atoms: _373  and  _376
REMARK  156  A    between atoms: _376  and  _377
REMARK  157  A    between atoms: _380  and  _382
REMARK  158  A    between atoms: _382  and  _383
REMARK  159  A    between atoms: _386  and  _388
REMARK  160  A    between atoms: _388  and  _389
REMARK  161  A    between atoms: _391  and  _393
REMARK  162  A    between atoms: _393  and  _394
REMARK  163  A    between atoms: _393  and  _396
REMARK  164  A    between atoms: _399  and  _401
REMARK  165  A    between atoms: _401  and  _402
REMARK  166  A    between atoms: _401  and  _404
REMARK  167  A    between atoms: _404  and  _405
REMARK  168  A    between atoms: _411  and  _413
REMARK  169  A    between atoms: _413  and  _414
REMARK  170  A    between atoms: _413  and  _416
REMARK  171  A    between atoms: _416  and  _417
REMARK  172  A    between atoms: _420  and  _422
REMARK  173  A    between atoms: _422  and  _423
REMARK  174  A    between atoms: _422  and  _425
REMARK  175  A    between atoms: _425  and  _426
REMARK  176  A    between atoms: _429  and  _431
REMARK  177  A    between atoms: _431  and  _432
REMARK  178  A    between atoms: _431  and  _434
REMARK  179  A    between atoms: _434  and  _435
REMARK  180  A    between atoms: _435  and  _436
REMARK  181  A    between atoms: _439  and  _441
REMARK  182  A    between atoms: _441  and  _442
REMARK  183  A    between atoms: _441  and  _444
REMARK  184  A    between atoms: _444  and  _445
REMARK  185  A    between atoms: _447  and  _449
REMARK  186  A    between atoms: _449  and  _450
REMARK  187  A    between atoms: _449  and  _452
REMARK  188  A    between atoms: _452  and  _453
REMARK  189  A    between atoms: _456  and  _458
REMARK  190  A    between atoms: _458  and  _459
REMARK  191  A    between atoms: _458  and  _461
REMARK  192  A    between atoms: _461  and  _462
REMARK  193  A    between atoms: _462  and  _463
REMARK  194  A    between atoms: _465  and  _467
REMARK  195  A    between atoms: _467  and  _468
REMARK  196  A    between atoms: _467  and  _470
REMARK  197  A    between atoms: _470  and  _471
REMARK  198  A    between atoms: _476  and  _478
REMARK  199  A    between atoms: _478  and  _479
REMARK  200  A    between atoms: _478  and  _481
REMARK  201  A    between atoms: _481  and  _482
REMARK  202  A    between atoms: _487  and  _488
REMARK  203  A    between atoms: _490  and  _492
REMARK  204  A    between atoms: _492  and  _493
REMARK  205  A    between atoms: _492  and  _495
REMARK  206  A    between atoms: _495  and  _496
REMARK  207  A    between atoms: _499  and  _501
REMARK  208  A    between atoms: _501  and  _502
REMARK  209  A    between atoms: _501  and  _504
REMARK  210  A    between atoms: _504  and  _505
REMARK  211  A    between atoms: _505  and  _506
REMARK  212  A    between atoms: _506  and  _507
REMARK  213  A    between atoms: _507  and  _508
REMARK  214  A    between atoms: _512  and  _514
REMARK  215  A    between atoms: _514  and  _515
REMARK  216  A    between atoms: _517  and  _519
REMARK  217  A    between atoms: _519  and  _520
REMARK  218  A    between atoms: _519  and  _522
REMARK  219  A    between atoms: _522  and  _523
REMARK  220  A    between atoms: _528  and  _529
REMARK  221  A    between atoms: _531  and  _533
REMARK  222  A    between atoms: _533  and  _534
REMARK  223  A    between atoms: _536  and  _538
REMARK  224  A    between atoms: _538  and  _539
REMARK  225  A    between atoms: _538  and  _541
REMARK  226  A    between atoms: _541  and  _542
REMARK                            x       y       z     vdW  Elec       q    Type
REMARK                         _______ _______ _______ _____ _____    ______ ____
ROOT
ATOM      1  CA  THR A   2      18.132   8.032  52.021  0.00  0.00    +0.176 C 
ENDROOT
BRANCH   1   3
ATOM      2  C   THR A   1      18.992   9.270  50.119  0.00  0.00    +0.241 C 
ATOM      3  N   THR A   2      18.220   9.229  51.197  0.00  0.00    -0.295 N 
ATOM      4  H   THR A   2      17.666  10.069  51.459  0.00  0.00    +0.150 HD
ATOM      5  O   THR A   1      19.678   8.314  49.747  0.00  0.00    -0.274 OA
BRANCH   2   6
ATOM      6  CA  THR A   1      18.977  10.582  49.350  0.00  0.00    +0.172 C 
BRANCH   6   7
ATOM      7  N   THR A   1      20.048  10.623  48.360  0.00  0.00    -0.236 NA
ATOM      8  H   THR A   1      20.304   9.757  47.844  0.00  0.00    +0.142 HD
ENDBRANCH   6   7
BRANCH   6   9
ATOM      9  CB  THR A   1      17.581  10.717  48.692  0.00  0.00    +0.135 C 
ATOM     10  CG2 THR A   1      17.538  11.908  47.726  0.00  0.00    +0.034 C 
BRANCH   9  11
ATOM     11  OG1 THR A   1      17.286   9.515  47.970  0.00  0.00    -0.383 OA
ATOM     12  HG1 THR A   1      16.394   9.596  47.547  0.00  0.00    +0.210 HD
ENDBRANCH   9  11
ENDBRANCH   6   9
ENDBRANCH   2   6
ENDBRANCH   1   3
BRANCH   1  13
ATOM     13  C   THR A   2      17.571   6.887  51.195  0.00  0.00    +0.243 C 
ATOM     14  O   THR A   2      18.122   5.791  51.187  0.00  0.00    -0.273 OA
ATOM     15  N   ALA A   3      16.469   7.157  50.502  0.00  0.00    -0.298 N 
ATOM     16  H   ALA A   3      16.057   8.110  50.565  0.00  0.00    +0.150 HD
BRANCH  15  17
ATOM     17  CA  ALA A   3      15.818   6.163  49.657  0.00  0.00    +0.137 C 
ATOM     18  CB  ALA A   3      14.652   6.802  48.905  0.00  0.00    +0.030 C 
BRANCH  17  19
ATOM     19  C   ALA A   3      16.791   5.527  48.665  0.00  0.00    +0.227 C 
ATOM     20  O   ALA A   3      16.613   4.373  48.275  0.00  0.00    -0.286 OA
ENDBRANCH  17  19
ENDBRANCH  15  17
ENDBRANCH   1  13
BRANCH   1  21
ATOM     21  CB  THR A   2      17.208   8.262  53.217  0.00  0.00    +0.137 C 
ATOM     22  CG2 THR A   2      17.309   7.092  54.195  0.00  0.00    +0.034 C 
BRANCH  21  23
ATOM     23  OG1 THR A   2      17.590   9.473  53.880  0.00  0.00    -0.382 OA
ATOM     24  HG1 THR A   2      17.513  10.232  53.249  0.00  0.00    +0.210 HD
ENDBRANCH  21  23
ENDBRANCH   1  21
TORSDOF 10
REMARK  Name = ../refined-set-2016/1syi/1syi_pocket.pdb
REMARK  226 active torsions:
REMARK  status: ('A' for Active; 'I' for Inactive)
REMARK    1  A    between atoms: _1  and  _3
REMARK    2  A    between atoms: _3  and  _4
REMARK    3  A    between atoms: _3  and  _6
REMARK    4  A    between atoms: _6  and  _7
REMARK    5  A    between atoms: _10  and  _12
REMARK    6  A    between atoms: _12  and  _13
REMARK    7  A    between atoms: _12  and  _15
REMARK    8  A    between atoms: _15  and  _16
REMARK    9  A    between atoms: _16  and  _17
REMARK   10  A    between atoms: _20  and  _22
REMARK   11  A    between atoms: _22  and  _23
REMARK   12  A    between atoms: _22  and  _25
REMARK   13  A    between atoms: _25  and  _26
REMARK   14  A    between atoms: _29  and  _30
REMARK   15  A    between atoms: _35  and  _37
REMARK   16  A    between atoms: _37  and  _38
REMARK   17  A    between atoms: _37  and  _40
REMARK   18  A    between atoms: _40  and  _41
REMARK   19  A    between atoms: _46  and  _47
REMARK   20  A    between atoms: _49  and  _51
REMARK   21  A    between atoms: _51  and  _52
REMARK   22  A    between atoms: _51  and  _54
REMARK   23  A    between atoms: _54  and  _55
REMARK   24  A    between atoms: _55  and  _56
REMARK   25  A    between atoms: _56  and  _57
REMARK   26  A    between atoms: _57  and  _58
REMARK   27  A    between atoms: _62  and  _64
REMARK   28  A    between atoms: _64  and  _65
REMARK   29  A    between atoms: _64  and  _67
REMARK   30  A    between atoms: _67  and  _68
REMARK   31  A    between atoms: _73  and  _74
REMARK   32  A    between atoms: _76  and  _78
REMARK   33  A    between atoms: _78  and  _79
REMARK   34  A    between atoms: _81  and  _83
REMARK   35  A    between atoms: _83  and  _84
REMARK   36  A    between atoms: _87  and  _89
REMARK   37  A    between atoms: _89  and  _90
REMARK   38  A    between atoms: _89  and  _92
REMARK   39  A    between atoms: _92  and  _93
REMARK   40  A    between atoms: _103  and  _105
REMARK   41  A    between atoms: _105  and  _106
REMARK   42  A    between atoms: _105  and  _108
REMARK   43  A    between atoms: _108  and  _109
REMARK   44  A    between atoms: _109  and  _110
REMARK   45  A    between atoms: _112  and  _114
REMARK   46  A    between atoms: _114  and  _115
REMARK   47  A    between atoms: _114  and  _117
REMARK   48  A    between atoms: _120  and  _122
REMARK   49  A    between atoms: _122  and  _123
REMARK   50  A    between atoms: _127  and  _128
REMARK   51  A    between atoms: _133  and  _135
REMARK   52  A    between atoms: _135  and  _136
REMARK   53  A    between atoms: _135  and  _138
REMARK   54  A    between atoms: _138  and  _139
REMARK   55  A    between atoms: _142  and  _144
REMARK   56  A    between atoms: _144  and  _145
REMARK   57  A    between atoms: _144  and  _147
REMARK   58  A    between atoms: _147  and  _148
REMARK   59  A    between atoms: _151  and  _153
REMARK   60  A    between atoms: _153  and  _154
REMARK   61  A    between atoms: _153  and  _156
REMARK   62  A    between atoms: _156  and  _157
REMARK   63  A    between atoms: _160  and  _162
REMARK   64  A    between atoms: _162  and  _163
REMARK   65  A    between atoms: _162  and  _165
REMARK   66  A    between atoms: _165  and  _166
REMARK   67  A    between atoms: _169  and  _171
REMARK   68  A    between atoms: _171  and  _172
REMARK   69  A    between atoms: _171  and  _174
REMARK   70  A    between atoms: _174  and  _175
REMARK   71  A    between atoms: _175  and  _176
REMARK   72  A    between atoms: _176  and  _177
REMARK   73  A    between atoms: _186  and  _188
REMARK   74  A    between atoms: _188  and  _189
REMARK   75  A    between atoms: _188  and  _191
REMARK   76  A    between atoms: _191  and  _192
REMARK   77  A    between atoms: _198  and  _200
REMARK   78  A    between atoms: _200  and  _201
REMARK   79  A    between atoms: _200  and  _203
REMARK   80  A    between atoms: _203  and  _204
REMARK   81  A    between atoms: _210  and  _212
REMARK   82  A    between atoms: _212  and  _213
REMARK   83  A    between atoms: _212  and  _215
REMARK   84  A    between atoms: _215  and  _216
REMARK   85  A    between atoms: _219  and  _221
REMARK   86  A    between atoms: _221  and  _222
REMARK   87  A    between atoms: _224  and  _226
REMARK   88  A    between atoms: _226  and  _227
REMARK   89  A    between atoms: _226  and  _229
REMARK   90  A    between atoms: _229  and  _230
REMARK   91  A    between atoms: _233  and  _235
REMARK   92  A    between atoms: _235  and  _236
REMARK   93  A    between atoms: _235  and  _238
REMARK   94  A    between atoms: _238  and  _239
REMARK   95  A    between atoms: _241  and  _243
REMARK   96  A    between atoms: _243  and  _244
REMARK   97  A    between atoms: _243  and  _246
REMARK   98  A    between atoms: _246  and  _247
REMARK   99  A    between atoms: _247  and  _248
REMARK  100  A    between atoms: _250  and  _252
REMARK  101  A    between atoms: _252  and  _253
REMARK  102  A    between atoms: _252  and  _255
REMARK  103  A    between atoms: _255  and  _256
REMARK  104  A    between atoms: _259  and  _261
REMARK  105  A    between atoms: _261  and  _262
REMARK  106  A    between atoms: _261  and  _264
REMARK  107  A    between atoms: _264  and  _265
REMARK  108  A    between atoms: _268  and  _270
REMARK  109  A    between atoms: _270  and  _271
REMARK  110  A    between atoms: _270  and  _273
REMARK  111  A    between atoms: _273  and  _274
REMARK  112  A    between atoms: _277  and  _279
REMARK  113  A    between atoms: _279  and  _280
REMARK  114  A    between atoms: _279  and  _282
REMARK  115  A    between atoms: _282  and  _283
REMARK  116  A    between atoms: _285  and  _287
REMARK  117  A    between atoms: _287  and  _288
REMARK  118  A    between atoms: _290  and  _292
REMARK  119  A    between atoms: _292  and  _293
REMARK  120  A    between atoms: _292  and  _295
REMARK  121  A    between atoms: _295  and  _296
REMARK  122  A    between atoms: _298  and  _300
REMARK  123  A    between atoms: _300  and  _301
REMARK  124  A    between atoms: _300  and  _303
REMARK  125  A    between atoms: _303  and  _304
REMARK  126  A    between atoms: _307  and  _309
REMARK  127  A    between atoms: _309  and  _310
REMARK  128  A    between atoms: _309  and  _312
REMARK  129  A    between atoms: _312  and  _313
REMARK  130  A    between atoms: _313  and  _314
REMARK  131  A    between atoms: _314  and  _315
REMARK  132  A    between atoms: _315  and  _316
REMARK  133  A    between atoms: _320  and  _322
REMARK  134  A    between atoms: _322  and  _323
REMARK  135  A    between atoms: _322  and  _325
REMARK  136  A    between atoms: _325  and  _326
REMARK  137  A    between atoms: _326  and  _327
REMARK  138  A    between atoms: _330  and  _332
REMARK  139  A    between atoms: _332  and  _333
REMARK  140  A    between atoms: _332  and  _335
REMARK  141  A    between atoms: _335  and  _336
REMARK  142  A    between atoms: _342  and  _344
REMARK  143  A    between atoms: _344  and  _345
REMARK  144  A    between atoms: _344  and  _347
REMARK  145  A    between atoms: _347  and  _348
REMARK  146  A    between atoms: _354  and  _356
REMARK  147  A    between atoms: _356  and  _357
REMARK  148  A    between atoms: _356  and  _359
REMARK  149  A    between atoms: _362  and  _364
REMARK  150  A    between atoms: _364  and  _365
REMARK  151  A    between atoms: _364  and  _367
REMARK  152  A    between atoms: _367  and  _368
REMARK  153  A    between atoms: _371  and  _373
REMARK  154  A    between atoms: _373  and  _374
REMARK  155  A    between atoms: _373  and  _376
REMARK  156  A    between atoms: _376  and  _377
REMARK  157  A    between atoms: _380  and  _382
REMARK  158  A    between atoms: _382  and  _383
REMARK  159  A    between atoms: _386  and  _388
REMARK  160  A    between atoms: _388  and  _389
REMARK  161  A    between atoms: _391  and  _393
REMARK  162  A    between atoms: _393  and  _394
REMARK  163  A    between atoms: _393  and  _396
REMARK  164  A    between atoms: _399  and  _401
REMARK  165  A    between atoms: _401  and  _402
REMARK  166  A    between atoms: _401  and  _404
REMARK  167  A    between atoms: _404  and  _405
REMARK  168  A    between atoms: _411  and  _413
REMARK  169  A    between atoms: _413  and  _414
REMARK  170  A    between atoms: _413  and  _416
REMARK  171  A    between atoms: _416  and  _417
REMARK  172  A    between atoms: _420  and  _422
REMARK  173  A    between atoms: _422  and  _423
REMARK  174  A    between atoms: _422  and  _425
REMARK  175  A    between atoms: _425  and  _426
REMARK  176  A    between atoms: _429  and  _431
REMARK  177  A    between atoms: _431  and  _432
REMARK  178  A    between atoms: _431  and  _434
REMARK  179  A    between atoms: _434  and  _435
REMARK  180  A    between atoms: _435  and  _436
REMARK  181  A    between atoms: _439  and  _441
REMARK  182  A    between atoms: _441  and  _442
REMARK  183  A    between atoms: _441  and  _444
REMARK  184  A    between atoms: _444  and  _445
REMARK  185  A    between atoms: _447  and  _449
REMARK  186  A    between atoms: _449  and  _450
REMARK  187  A    between atoms: _449  and  _452
REMARK  188  A    between atoms: _452  and  _453
REMARK  189  A    between atoms: _456  and  _458
REMARK  190  A    between atoms: _458  and  _459
REMARK  191  A    between atoms: _458  and  _461
REMARK  192  A    between atoms: _461  and  _462
REMARK  193  A    between atoms: _462  and  _463
REMARK  194  A    between atoms: _465  and  _467
REMARK  195  A    between atoms: _467  and  _468
REMARK  196  A    between atoms: _467  and  _470
REMARK  197  A    between atoms: _470  and  _471
REMARK  198  A    between atoms: _476  and  _478
REMARK  199  A    between atoms: _478  and  _479
REMARK  200  A    between atoms: _478  and  _481
REMARK  201  A    between atoms: _481  and  _482
REMARK  202  A    between atoms: _487  and  _488
REMARK  203  A    between atoms: _490  and  _492
REMARK  204  A    between atoms: _492  and  _493
REMARK  205  A    between atoms: _492  and  _495
REMARK  206  A    between atoms: _495  and  _496
REMARK  207  A    between atoms: _499  and  _501
REMARK  208  A    between atoms: _501  and  _502
REMARK  209  A    between atoms: _501  and  _504
REMARK  210  A    between atoms: _504  and  _505
REMARK  211  A    between atoms: _505  and  _506
REMARK  212  A    between atoms: _506  and  _507
REMARK  213  A    between atoms: _507  and  _508
REMARK  214  A    between atoms: _512  and  _514
REMARK  215  A    between atoms: _514  and  _515
REMARK  216  A    between atoms: _517  and  _519
REMARK  217  A    between atoms: _519  and  _520
REMARK  218  A    between atoms: _519  and  _522
REMARK  219  A    between atoms: _522  and  _523
REMARK  220  A    between atoms: _528  and  _529
REMARK  221  A    between atoms: _531  and  _533
REMARK  222  A    between atoms: _533  and  _534
REMARK  223  A    between atoms: _536  and  _538
REMARK  224  A    between atoms: _538  and  _539
REMARK  225  A    between atoms: _538  and  _541
REMARK  226  A    between atoms: _541  and  _542
REMARK                            x       y       z     vdW  Elec       q    Type
REMARK                         _______ _______ _______ _____ _____    ______ ____
ROOT
ATOM      1  C   GLY A   1      20.360   3.070  50.336  0.00  0.00    +0.240 C 
ATOM      2  N   VAL A   2      19.111   3.157  50.781  0.00  0.00    -0.298 N 
ATOM      3  H   VAL A   2      18.684   4.098  50.900  0.00  0.00    +0.150 HD
ATOM      4  O   GLY A   1      20.941   2.000  50.165  0.00  0.00    -0.274 OA
ENDROOT
BRANCH   1   5
ATOM      5  CA  GLY A   1      21.043   4.387  50.033  0.00  0.00    +0.169 C 
BRANCH   5   6
ATOM      6  N   GLY A   1      20.154   5.216  49.241  0.00  0.00    -0.236 NA
ATOM      7  H   GLY A   1      19.827   6.128  49.619  0.00  0.00    +0.142 HD
ENDBRANCH   5   6
ENDBRANCH   1   5
BRANCH   2   8
ATOM      8  CA  VAL A   2      18.318   1.975  51.108  0.00  0.00    +0.137 C 
BRANCH   8   9
ATOM      9  CB  VAL A   2      16.905   2.382  51.586  0.00  0.00    +0.026 C 
ATOM     10  CG2 VAL A   2      17.014   3.129  52.917  0.00  0.00    +0.002 C 
ATOM     11  CG1 VAL A   2      16.015   1.151  51.745  0.00  0.00    +0.002 C 
ENDBRANCH   8   9
BRANCH   8  12
ATOM     12  C   VAL A   2      18.204   1.067  49.884  0.00  0.00    +0.227 C 
ATOM     13  O   VAL A   2      18.488  -0.129  49.961  0.00  0.00    -0.286 OA
ENDBRANCH   8  12
ENDBRANCH   2   8
TORSDOF 5
REMARK  Name = ../refined-set-2016/1syi/1syi_pocket.pdb
REMARK  226 active torsions:
REMARK  status: ('A' for Active; 'I' for Inactive)
REMARK    1  A    between atoms: _1  and  _3
REMARK    2  A    between atoms: _3  and  _4
REMARK    3  A    between atoms: _3  and  _6
REMARK    4  A    between atoms: _6  and  _7
REMARK    5  A    between atoms: _10  and  _12
REMARK    6  A    between atoms: _12  and  _13
REMARK    7  A    between atoms: _12  and  _15
REMARK    8  A    between atoms: _15  and  _16
REMARK    9  A    between atoms: _16  and  _17
REMARK   10  A    between atoms: _20  and  _22
REMARK   11  A    between atoms: _22  and  _23
REMARK   12  A    between atoms: _22  and  _25
REMARK   13  A    between atoms: _25  and  _26
REMARK   14  A    between atoms: _29  and  _30
REMARK   15  A    between atoms: _35  and  _37
REMARK   16  A    between atoms: _37  and  _38
REMARK   17  A    between atoms: _37  and  _40
REMARK   18  A    between atoms: _40  and  _41
REMARK   19  A    between atoms: _46  and  _47
REMARK   20  A    between atoms: _49  and  _51
REMARK   21  A    between atoms: _51  and  _52
REMARK   22  A    between atoms: _51  and  _54
REMARK   23  A    between atoms: _54  and  _55
REMARK   24  A    between atoms: _55  and  _56
REMARK   25  A    between atoms: _56  and  _57
REMARK   26  A    between atoms: _57  and  _58
REMARK   27  A    between atoms: _62  and  _64
REMARK   28  A    between atoms: _64  and  _65
REMARK   29  A    between atoms: _64  and  _67
REMARK   30  A    between atoms: _67  and  _68
REMARK   31  A    between atoms: _73  and  _74
REMARK   32  A    between atoms: _76  and  _78
REMARK   33  A    between atoms: _78  and  _79
REMARK   34  A    between atoms: _81  and  _83
REMARK   35  A    between atoms: _83  and  _84
REMARK   36  A    between atoms: _87  and  _89
REMARK   37  A    between atoms: _89  and  _90
REMARK   38  A    between atoms: _89  and  _92
REMARK   39  A    between atoms: _92  and  _93
REMARK   40  A    between atoms: _103  and  _105
REMARK   41  A    between atoms: _105  and  _106
REMARK   42  A    between atoms: _105  and  _108
REMARK   43  A    between atoms: _108  and  _109
REMARK   44  A    between atoms: _109  and  _110
REMARK   45  A    between atoms: _112  and  _114
REMARK   46  A    between atoms: _114  and  _115
REMARK   47  A    between atoms: _114  and  _117
REMARK   48  A    between atoms: _120  and  _122
REMARK   49  A    between atoms: _122  and  _123
REMARK   50  A    between atoms: _127  and  _128
REMARK   51  A    between atoms: _133  and  _135
REMARK   52  A    between atoms: _135  and  _136
REMARK   53  A    between atoms: _135  and  _138
REMARK   54  A    between atoms: _138  and  _139
REMARK   55  A    between atoms: _142  and  _144
REMARK   56  A    between atoms: _144  and  _145
REMARK   57  A    between atoms: _144  and  _147
REMARK   58  A    between atoms: _147  and  _148
REMARK   59  A    between atoms: _151  and  _153
REMARK   60  A    between atoms: _153  and  _154
REMARK   61  A    between atoms: _153  and  _156
REMARK   62  A    between atoms: _156  and  _157
REMARK   63  A    between atoms: _160  and  _162
REMARK   64  A    between atoms: _162  and  _163
REMARK   65  A    between atoms: _162  and  _165
REMARK   66  A    between atoms: _165  and  _166
REMARK   67  A    between atoms: _169  and  _171
REMARK   68  A    between atoms: _171  and  _172
REMARK   69  A    between atoms: _171  and  _174
REMARK   70  A    between atoms: _174  and  _175
REMARK   71  A    between atoms: _175  and  _176
REMARK   72  A    between atoms: _176  and  _177
REMARK   73  A    between atoms: _186  and  _188
REMARK   74  A    between atoms: _188  and  _189
REMARK   75  A    between atoms: _188  and  _191
REMARK   76  A    between atoms: _191  and  _192
REMARK   77  A    between atoms: _198  and  _200
REMARK   78  A    between atoms: _200  and  _201
REMARK   79  A    between atoms: _200  and  _203
REMARK   80  A    between atoms: _203  and  _204
REMARK   81  A    between atoms: _210  and  _212
REMARK   82  A    between atoms: _212  and  _213
REMARK   83  A    between atoms: _212  and  _215
REMARK   84  A    between atoms: _215  and  _216
REMARK   85  A    between atoms: _219  and  _221
REMARK   86  A    between atoms: _221  and  _222
REMARK   87  A    between atoms: _224  and  _226
REMARK   88  A    between atoms: _226  and  _227
REMARK   89  A    between atoms: _226  and  _229
REMARK   90  A    between atoms: _229  and  _230
REMARK   91  A    between atoms: _233  and  _235
REMARK   92  A    between atoms: _235  and  _236
REMARK   93  A    between atoms: _235  and  _238
REMARK   94  A    between atoms: _238  and  _239
REMARK   95  A    between atoms: _241  and  _243
REMARK   96  A    between atoms: _243  and  _244
REMARK   97  A    between atoms: _243  and  _246
REMARK   98  A    between atoms: _246  and  _247
REMARK   99  A    between atoms: _247  and  _248
REMARK  100  A    between atoms: _250  and  _252
REMARK  101  A    between atoms: _252  and  _253
REMARK  102  A    between atoms: _252  and  _255
REMARK  103  A    between atoms: _255  and  _256
REMARK  104  A    between atoms: _259  and  _261
REMARK  105  A    between atoms: _261  and  _262
REMARK  106  A    between atoms: _261  and  _264
REMARK  107  A    between atoms: _264  and  _265
REMARK  108  A    between atoms: _268  and  _270
REMARK  109  A    between atoms: _270  and  _271
REMARK  110  A    between atoms: _270  and  _273
REMARK  111  A    between atoms: _273  and  _274
REMARK  112  A    between atoms: _277  and  _279
REMARK  113  A    between atoms: _279  and  _280
REMARK  114  A    between atoms: _279  and  _282
REMARK  115  A    between atoms: _282  and  _283
REMARK  116  A    between atoms: _285  and  _287
REMARK  117  A    between atoms: _287  and  _288
REMARK  118  A    between atoms: _290  and  _292
REMARK  119  A    between atoms: _292  and  _293
REMARK  120  A    between atoms: _292  and  _295
REMARK  121  A    between atoms: _295  and  _296
REMARK  122  A    between atoms: _298  and  _300
REMARK  123  A    between atoms: _300  and  _301
REMARK  124  A    between atoms: _300  and  _303
REMARK  125  A    between atoms: _303  and  _304
REMARK  126  A    between atoms: _307  and  _309
REMARK  127  A    between atoms: _309  and  _310
REMARK  128  A    between atoms: _309  and  _312
REMARK  129  A    between atoms: _312  and  _313
REMARK  130  A    between atoms: _313  and  _314
REMARK  131  A    between atoms: _314  and  _315
REMARK  132  A    between atoms: _315  and  _316
REMARK  133  A    between atoms: _320  and  _322
REMARK  134  A    between atoms: _322  and  _323
REMARK  135  A    between atoms: _322  and  _325
REMARK  136  A    between atoms: _325  and  _326
REMARK  137  A    between atoms: _326  and  _327
REMARK  138  A    between atoms: _330  and  _332
REMARK  139  A    between atoms: _332  and  _333
REMARK  140  A    between atoms: _332  and  _335
REMARK  141  A    between atoms: _335  and  _336
REMARK  142  A    between atoms: _342  and  _344
REMARK  143  A    between atoms: _344  and  _345
REMARK  144  A    between atoms: _344  and  _347
REMARK  145  A    between atoms: _347  and  _348
REMARK  146  A    between atoms: _354  and  _356
REMARK  147  A    between atoms: _356  and  _357
REMARK  148  A    between atoms: _356  and  _359
REMARK  149  A    between atoms: _362  and  _364
REMARK  150  A    between atoms: _364  and  _365
REMARK  151  A    between atoms: _364  and  _367
REMARK  152  A    between atoms: _367  and  _368
REMARK  153  A    between atoms: _371  and  _373
REMARK  154  A    between atoms: _373  and  _374
REMARK  155  A    between atoms: _373  and  _376
REMARK  156  A    between atoms: _376  and  _377
REMARK  157  A    between atoms: _380  and  _382
REMARK  158  A    between atoms: _382  and  _383
REMARK  159  A    between atoms: _386  and  _388
REMARK  160  A    between atoms: _388  and  _389
REMARK  161  A    between atoms: _391  and  _393
REMARK  162  A    between atoms: _393  and  _394
REMARK  163  A    between atoms: _393  and  _396
REMARK  164  A    between atoms: _399  and  _401
REMARK  165  A    between atoms: _401  and  _402
REMARK  166  A    between atoms: _401  and  _404
REMARK  167  A    between atoms: _404  and  _405
REMARK  168  A    between atoms: _411  and  _413
REMARK  169  A    between atoms: _413  and  _414
REMARK  170  A    between atoms: _413  and  _416
REMARK  171  A    between atoms: _416  and  _417
REMARK  172  A    between atoms: _420  and  _422
REMARK  173  A    between atoms: _422  and  _423
REMARK  174  A    between atoms: _422  and  _425
REMARK  175  A    between atoms: _425  and  _426
REMARK  176  A    between atoms: _429  and  _431
REMARK  177  A    between atoms: _431  and  _432
REMARK  178  A    between atoms: _431  and  _434
REMARK  179  A    between atoms: _434  and  _435
REMARK  180  A    between atoms: _435  and  _436
REMARK  181  A    between atoms: _439  and  _441
REMARK  182  A    between atoms: _441  and  _442
REMARK  183  A    between atoms: _441  and  _444
REMARK  184  A    between atoms: _444  and  _445
REMARK  185  A    between atoms: _447  and  _449
REMARK  186  A    between atoms: _449  and  _450
REMARK  187  A    between atoms: _449  and  _452
REMARK  188  A    between atoms: _452  and  _453
REMARK  189  A    between atoms: _456  and  _458
REMARK  190  A    between atoms: _458  and  _459
REMARK  191  A    between atoms: _458  and  _461
REMARK  192  A    between atoms: _461  and  _462
REMARK  193  A    between atoms: _462  and  _463
REMARK  194  A    between atoms: _465  and  _467
REMARK  195  A    between atoms: _467  and  _468
REMARK  196  A    between atoms: _467  and  _470
REMARK  197  A    between atoms: _470  and  _471
REMARK  198  A    between atoms: _476  and  _478
REMARK  199  A    between atoms: _478  and  _479
REMARK  200  A    between atoms: _478  and  _481
REMARK  201  A    between atoms: _481  and  _482
REMARK  202  A    between atoms: _487  and  _488
REMARK  203  A    between atoms: _490  and  _492
REMARK  204  A    between atoms: _492  and  _493
REMARK  205  A    between atoms: _492  and  _495
REMARK  206  A    between atoms: _495  and  _496
REMARK  207  A    between atoms: _499  and  _501
REMARK  208  A    between atoms: _501  and  _502
REMARK  209  A    between atoms: _501  and  _504
REMARK  210  A    between atoms: _504  and  _505
REMARK  211  A    between atoms: _505  and  _506
REMARK  212  A    between atoms: _506  and  _507
REMARK  213  A    between atoms: _507  and  _508
REMARK  214  A    between atoms: _512  and  _514
REMARK  215  A    between atoms: _514  and  _515
REMARK  216  A    between atoms: _517  and  _519
REMARK  217  A    between atoms: _519  and  _520
REMARK  218  A    between atoms: _519  and  _522
REMARK  219  A    between atoms: _522  and  _523
REMARK  220  A    between atoms: _528  and  _529
REMARK  221  A    between atoms: _531  and  _533
REMARK  222  A    between atoms: _533  and  _534
REMARK  223  A    between atoms: _536  and  _538
REMARK  224  A    between atoms: _538  and  _539
REMARK  225  A    between atoms: _538  and  _541
REMARK  226  A    between atoms: _541  and  _542
REMARK                            x       y       z     vdW  Elec       q    Type
REMARK                         _______ _______ _______ _____ _____    ______ ____
ROOT
ATOM      1  C   GLU A   4      20.376   6.743  61.875  0.00  0.00    +0.241 C 
ATOM      2  N   SER A   5      20.702   6.236  63.062  0.00  0.00    -0.295 N 
ATOM      3  H   SER A   5      21.523   6.638  63.557  0.00  0.00    +0.150 HD
ATOM      4  O   GLU A   4      19.403   6.370  61.206  0.00  0.00    -0.273 OA
ENDROOT
BRANCH   1   5
ATOM      5  CA  GLU A   4      21.322   7.827  61.366  0.00  0.00    +0.149 C 
BRANCH   5   8
ATOM      6  C   LEU A   3      22.540   6.553  59.715  0.00  0.00    +0.241 C 
ATOM      7  O   LEU A   3      22.908   5.737  60.563  0.00  0.00    -0.273 OA
ATOM      8  N   GLU A   4      21.760   7.583  60.004  0.00  0.00    -0.297 N 
ATOM      9  H   GLU A   4      21.457   8.226  59.245  0.00  0.00    +0.150 HD
BRANCH   6  10
ATOM     10  CA  LEU A   3      22.952   6.417  58.257  0.00  0.00    +0.149 C 
BRANCH  10  12
ATOM     11  C   LEU A   2      24.939   5.502  57.208  0.00  0.00    +0.241 C 
ATOM     12  N   LEU A   3      23.970   5.391  58.112  0.00  0.00    -0.297 N 
ATOM     13  H   LEU A   3      23.940   4.553  58.727  0.00  0.00    +0.150 HD
ATOM     14  O   LEU A   2      25.034   6.462  56.430  0.00  0.00    -0.273 OA
BRANCH  11  15
ATOM     15  CA  LEU A   2      25.937   4.351  57.151  0.00  0.00    +0.149 C 
BRANCH  15  18
ATOM     16  C   PHE A   1      24.937   2.622  55.754  0.00  0.00    +0.239 C 
ATOM     17  O   PHE A   1      24.367   2.093  56.704  0.00  0.00    -0.274 OA
ATOM     18  N   LEU A   2      25.715   3.689  55.876  0.00  0.00    -0.297 N 
ATOM     19  H   LEU A   2      26.184   4.066  55.028  0.00  0.00    +0.150 HD
BRANCH  16  20
ATOM     20  CA  PHE A   1      24.799   2.077  54.337  0.00  0.00    +0.149 C 
BRANCH  20  21
ATOM     21  N   PHE A   1      25.110   0.657  54.252  0.00  0.00    -0.238 NA
ATOM     22  H   PHE A   1      24.431  -0.043  54.614  0.00  0.00    +0.142 HD
ENDBRANCH  20  21
BRANCH  20  23
ATOM     23  CB  PHE A   1      23.378   2.333  53.809  0.00  0.00    +0.053 C 
BRANCH  23  24
ATOM     24  CG  PHE A   1      23.038   3.791  53.625  0.00  0.00    -0.020 A 
ATOM     25  CD2 PHE A   1      21.759   4.261  53.913  0.00  0.00    -0.004 A 
ATOM     26  CE2 PHE A   1      21.413   5.601  53.682  0.00  0.00    -0.000 A 
ATOM     27  CZ  PHE A   1      22.354   6.480  53.159  0.00  0.00    -0.000 A 
ATOM     28  CE1 PHE A   1      23.634   6.024  52.868  0.00  0.00    -0.000 A 
ATOM     29  CD1 PHE A   1      23.971   4.685  53.103  0.00  0.00    -0.004 A 
ENDBRANCH  23  24
ENDBRANCH  20  23
ENDBRANCH  16  20
ENDBRANCH  15  18
BRANCH  15  30
ATOM     30  CB  LEU A   2      27.371   4.879  57.217  0.00  0.00    +0.029 C 
BRANCH  30  31
ATOM     31  CG  LEU A   2      28.443   3.786  57.238  0.00  0.00    +0.002 C 
ATOM     32  CD2 LEU A   2      28.533   3.211  58.648  0.00  0.00    +0.000 C 
ATOM     33  CD1 LEU A   2      29.789   4.356  56.789  0.00  0.00    +0.000 C 
ENDBRANCH  30  31
ENDBRANCH  15  30
ENDBRANCH  11  15
ENDBRANCH  10  12
BRANCH  10  34
ATOM     34  CB  LEU A   3      21.730   6.067  57.407  0.00  0.00    +0.029 C 
BRANCH  34  35
ATOM     35  CG  LEU A   3      20.725   5.078  57.996  0.00  0.00    +0.002 C 
ATOM     36  CD2 LEU A   3      21.399   3.742  58.239  0.00  0.00    +0.000 C 
ATOM     37  CD1 LEU A   3      19.539   4.937  57.040  0.00  0.00    +0.000 C 
ENDBRANCH  34  35
ENDBRANCH  10  34
ENDBRANCH   6  10
ENDBRANCH   5   8
BRANCH   5  38
ATOM     38  CB  GLU A   4      20.723   9.227  61.447  0.00  0.00    +0.041 C 
BRANCH  38  39
ATOM     39  CG  GLU A   4      21.752  10.259  61.009  0.00  0.00    +0.116 C 
BRANCH  39  40
ATOM     40  CD  GLU A   4      21.237  11.678  61.020  0.00  0.00    +0.365 C 
ATOM     41  OE2 GLU A   4      22.017  12.586  61.380  0.00  0.00    -0.246 OA
ATOM     42  OE1 GLU A   4      20.066  11.888  60.652  0.00  0.00    -0.246 OA
ENDBRANCH  39  40
ENDBRANCH  38  39
ENDBRANCH   5  38
ENDBRANCH   1   5
BRANCH   2  43
ATOM     43  CA  SER A   5      19.975   5.149  63.709  0.00  0.00    +0.178 C 
BRANCH  43  44
ATOM     44  C   SER A   5      18.451   5.148  63.657  0.00  0.00    +0.243 C 
ATOM     45  N   THR A   6      17.805   6.279  63.921  0.00  0.00    -0.295 N 
ATOM     46  H   THR A   6      18.335   7.145  64.148  0.00  0.00    +0.150 HD
ATOM     47  O   SER A   5      17.858   4.110  63.389  0.00  0.00    -0.273 OA
BRANCH  45  48
ATOM     48  CA  THR A   6      16.343   6.297  63.890  0.00  0.00    +0.176 C 
BRANCH  48  49
ATOM     49  C   THR A   6      15.789   6.030  62.490  0.00  0.00    +0.243 C 
ATOM     50  O   THR A   6      14.690   5.493  62.348  0.00  0.00    -0.273 OA
ATOM     51  N   MET A   7      16.543   6.405  61.460  0.00  0.00    -0.297 N 
ATOM     52  H   MET A   7      17.449   6.885  61.633  0.00  0.00    +0.150 HD
BRANCH  51  53
ATOM     53  CA  MET A   7      16.109   6.148  60.086  0.00  0.00    +0.149 C 
BRANCH  53  54
ATOM     54  C   MET A   7      16.367   4.670  59.817  0.00  0.00    +0.241 C 
ATOM     55  N   ASN A   8      17.503   4.177  60.308  0.00  0.00    -0.298 N 
ATOM     56  H   ASN A   8      18.142   4.817  60.821  0.00  0.00    +0.150 HD
ATOM     57  O   MET A   7      15.553   3.996  59.197  0.00  0.00    -0.273 OA
BRANCH  55  58
ATOM     58  CA  ASN A   8      17.891   2.774  60.158  0.00  0.00    +0.146 C 
BRANCH  58  59
ATOM     59  C   ASN A   8      16.763   1.913  60.737  0.00  0.00    +0.227 C 
ATOM     60  O   ASN A   8      16.276   0.981  60.086  0.00  0.00    -0.286 OA
ENDBRANCH  58  59
BRANCH  58  61
ATOM     61  CB  ASN A   8      19.188   2.502  60.943  0.00  0.00    +0.112 C 
BRANCH  61  62
ATOM     62  CG  ASN A   8      19.962   1.281  60.433  0.00  0.00    +0.222 C 
ATOM     63  ND2 ASN A   8      21.265   1.271  60.689  0.00  0.00    -0.329 N 
ATOM     64 HD21 ASN A   8      21.701   2.067  61.197  0.00  0.00    +0.145 HD
ATOM     65 HD22 ASN A   8      21.849   0.467  60.381  0.00  0.00    +0.145 HD
ATOM     66  OD1 ASN A   8      19.400   0.361  59.834  0.00  0.00    -0.275 OA
ENDBRANCH  61  62
ENDBRANCH  58  61
ENDBRANCH  55  58
ENDBRANCH  53  54
BRANCH  53  67
ATOM     67  CB  MET A   7      16.899   7.000  59.092  0.00  0.00    +0.041 C 
BRANCH  67  68
ATOM     68  CG  MET A   7      16.542   6.738  57.628  0.00  0.00    +0.060 C 
BRANCH  68  69
ATOM     69  SD  MET A   7      14.821   7.125  57.224  0.00  0.00    -0.139 S 
ATOM     70  CE  MET A   7      14.932   8.893  57.076  0.00  0.00    +0.069 C 
ENDBRANCH  68  69
ENDBRANCH  67  68
ENDBRANCH  53  67
ENDBRANCH  51  53
ENDBRANCH  48  49
BRANCH  48  71
ATOM     71  CB  THR A   6      15.771   7.628  64.435  0.00  0.00    +0.137 C 
ATOM     72  CG2 THR A   6      16.018   7.721  65.939  0.00  0.00    +0.034 C 
BRANCH  71  73
ATOM     73  OG1 THR A   6      16.386   8.741  63.767  0.00  0.00    -0.382 OA
ATOM     74  HG1 THR A   6      16.204   8.683  62.796  0.00  0.00    +0.210 HD
ENDBRANCH  71  73
ENDBRANCH  48  71
ENDBRANCH  45  48
ENDBRANCH  43  44
BRANCH  43  75
ATOM     75  CB  SER A   5      20.426   5.020  65.172  0.00  0.00    +0.166 C 
BRANCH  75  76
ATOM     76  OG  SER A   5      20.169   6.210  65.891  0.00  0.00    -0.380 OA
ATOM     77  H   SER A   5      20.661   6.960  65.472  0.00  0.00    +0.211 HD
ENDBRANCH  75  76
ENDBRANCH  43  75
ENDBRANCH   2  43
TORSDOF 34
REMARK  Name = ../refined-set-2016/1syi/1syi_pocket.pdb
REMARK  226 active torsions:
REMARK  status: ('A' for Active; 'I' for Inactive)
REMARK    1  A    between atoms: _1  and  _3
REMARK    2  A    between atoms: _3  and  _4
REMARK    3  A    between atoms: _3  and  _6
REMARK    4  A    between atoms: _6  and  _7
REMARK    5  A    between atoms: _10  and  _12
REMARK    6  A    between atoms: _12  and  _13
REMARK    7  A    between atoms: _12  and  _15
REMARK    8  A    between atoms: _15  and  _16
REMARK    9  A    between atoms: _16  and  _17
REMARK   10  A    between atoms: _20  and  _22
REMARK   11  A    between atoms: _22  and  _23
REMARK   12  A    between atoms: _22  and  _25
REMARK   13  A    between atoms: _25  and  _26
REMARK   14  A    between atoms: _29  and  _30
REMARK   15  A    between atoms: _35  and  _37
REMARK   16  A    between atoms: _37  and  _38
REMARK   17  A    between atoms: _37  and  _40
REMARK   18  A    between atoms: _40  and  _41
REMARK   19  A    between atoms: _46  and  _47
REMARK   20  A    between atoms: _49  and  _51
REMARK   21  A    between atoms: _51  and  _52
REMARK   22  A    between atoms: _51  and  _54
REMARK   23  A    between atoms: _54  and  _55
REMARK   24  A    between atoms: _55  and  _56
REMARK   25  A    between atoms: _56  and  _57
REMARK   26  A    between atoms: _57  and  _58
REMARK   27  A    between atoms: _62  and  _64
REMARK   28  A    between atoms: _64  and  _65
REMARK   29  A    between atoms: _64  and  _67
REMARK   30  A    between atoms: _67  and  _68
REMARK   31  A    between atoms: _73  and  _74
REMARK   32  A    between atoms: _76  and  _78
REMARK   33  A    between atoms: _78  and  _79
REMARK   34  A    between atoms: _81  and  _83
REMARK   35  A    between atoms: _83  and  _84
REMARK   36  A    between atoms: _87  and  _89
REMARK   37  A    between atoms: _89  and  _90
REMARK   38  A    between atoms: _89  and  _92
REMARK   39  A    between atoms: _92  and  _93
REMARK   40  A    between atoms: _103  and  _105
REMARK   41  A    between atoms: _105  and  _106
REMARK   42  A    between atoms: _105  and  _108
REMARK   43  A    between atoms: _108  and  _109
REMARK   44  A    between atoms: _109  and  _110
REMARK   45  A    between atoms: _112  and  _114
REMARK   46  A    between atoms: _114  and  _115
REMARK   47  A    between atoms: _114  and  _117
REMARK   48  A    between atoms: _120  and  _122
REMARK   49  A    between atoms: _122  and  _123
REMARK   50  A    between atoms: _127  and  _128
REMARK   51  A    between atoms: _133  and  _135
REMARK   52  A    between atoms: _135  and  _136
REMARK   53  A    between atoms: _135  and  _138
REMARK   54  A    between atoms: _138  and  _139
REMARK   55  A    between atoms: _142  and  _144
REMARK   56  A    between atoms: _144  and  _145
REMARK   57  A    between atoms: _144  and  _147
REMARK   58  A    between atoms: _147  and  _148
REMARK   59  A    between atoms: _151  and  _153
REMARK   60  A    between atoms: _153  and  _154
REMARK   61  A    between atoms: _153  and  _156
REMARK   62  A    between atoms: _156  and  _157
REMARK   63  A    between atoms: _160  and  _162
REMARK   64  A    between atoms: _162  and  _163
REMARK   65  A    between atoms: _162  and  _165
REMARK   66  A    between atoms: _165  and  _166
REMARK   67  A    between atoms: _169  and  _171
REMARK   68  A    between atoms: _171  and  _172
REMARK   69  A    between atoms: _171  and  _174
REMARK   70  A    between atoms: _174  and  _175
REMARK   71  A    between atoms: _175  and  _176
REMARK   72  A    between atoms: _176  and  _177
REMARK   73  A    between atoms: _186  and  _188
REMARK   74  A    between atoms: _188  and  _189
REMARK   75  A    between atoms: _188  and  _191
REMARK   76  A    between atoms: _191  and  _192
REMARK   77  A    between atoms: _198  and  _200
REMARK   78  A    between atoms: _200  and  _201
REMARK   79  A    between atoms: _200  and  _203
REMARK   80  A    between atoms: _203  and  _204
REMARK   81  A    between atoms: _210  and  _212
REMARK   82  A    between atoms: _212  and  _213
REMARK   83  A    between atoms: _212  and  _215
REMARK   84  A    between atoms: _215  and  _216
REMARK   85  A    between atoms: _219  and  _221
REMARK   86  A    between atoms: _221  and  _222
REMARK   87  A    between atoms: _224  and  _226
REMARK   88  A    between atoms: _226  and  _227
REMARK   89  A    between atoms: _226  and  _229
REMARK   90  A    between atoms: _229  and  _230
REMARK   91  A    between atoms: _233  and  _235
REMARK   92  A    between atoms: _235  and  _236
REMARK   93  A    between atoms: _235  and  _238
REMARK   94  A    between atoms: _238  and  _239
REMARK   95  A    between atoms: _241  and  _243
REMARK   96  A    between atoms: _243  and  _244
REMARK   97  A    between atoms: _243  and  _246
REMARK   98  A    between atoms: _246  and  _247
REMARK   99  A    between atoms: _247  and  _248
REMARK  100  A    between atoms: _250  and  _252
REMARK  101  A    between atoms: _252  and  _253
REMARK  102  A    between atoms: _252  and  _255
REMARK  103  A    between atoms: _255  and  _256
REMARK  104  A    between atoms: _259  and  _261
REMARK  105  A    between atoms: _261  and  _262
REMARK  106  A    between atoms: _261  and  _264
REMARK  107  A    between atoms: _264  and  _265
REMARK  108  A    between atoms: _268  and  _270
REMARK  109  A    between atoms: _270  and  _271
REMARK  110  A    between atoms: _270  and  _273
REMARK  111  A    between atoms: _273  and  _274
REMARK  112  A    between atoms: _277  and  _279
REMARK  113  A    between atoms: _279  and  _280
REMARK  114  A    between atoms: _279  and  _282
REMARK  115  A    between atoms: _282  and  _283
REMARK  116  A    between atoms: _285  and  _287
REMARK  117  A    between atoms: _287  and  _288
REMARK  118  A    between atoms: _290  and  _292
REMARK  119  A    between atoms: _292  and  _293
REMARK  120  A    between atoms: _292  and  _295
REMARK  121  A    between atoms: _295  and  _296
REMARK  122  A    between atoms: _298  and  _300
REMARK  123  A    between atoms: _300  and  _301
REMARK  124  A    between atoms: _300  and  _303
REMARK  125  A    between atoms: _303  and  _304
REMARK  126  A    between atoms: _307  and  _309
REMARK  127  A    between atoms: _309  and  _310
REMARK  128  A    between atoms: _309  and  _312
REMARK  129  A    between atoms: _312  and  _313
REMARK  130  A    between atoms: _313  and  _314
REMARK  131  A    between atoms: _314  and  _315
REMARK  132  A    between atoms: _315  and  _316
REMARK  133  A    between atoms: _320  and  _322
REMARK  134  A    between atoms: _322  and  _323
REMARK  135  A    between atoms: _322  and  _325
REMARK  136  A    between atoms: _325  and  _326
REMARK  137  A    between atoms: _326  and  _327
REMARK  138  A    between atoms: _330  and  _332
REMARK  139  A    between atoms: _332  and  _333
REMARK  140  A    between atoms: _332  and  _335
REMARK  141  A    between atoms: _335  and  _336
REMARK  142  A    between atoms: _342  and  _344
REMARK  143  A    between atoms: _344  and  _345
REMARK  144  A    between atoms: _344  and  _347
REMARK  145  A    between atoms: _347  and  _348
REMARK  146  A    between atoms: _354  and  _356
REMARK  147  A    between atoms: _356  and  _357
REMARK  148  A    between atoms: _356  and  _359
REMARK  149  A    between atoms: _362  and  _364
REMARK  150  A    between atoms: _364  and  _365
REMARK  151  A    between atoms: _364  and  _367
REMARK  152  A    between atoms: _367  and  _368
REMARK  153  A    between atoms: _371  and  _373
REMARK  154  A    between atoms: _373  and  _374
REMARK  155  A    between atoms: _373  and  _376
REMARK  156  A    between atoms: _376  and  _377
REMARK  157  A    between atoms: _380  and  _382
REMARK  158  A    between atoms: _382  and  _383
REMARK  159  A    between atoms: _386  and  _388
REMARK  160  A    between atoms: _388  and  _389
REMARK  161  A    between atoms: _391  and  _393
REMARK  162  A    between atoms: _393  and  _394
REMARK  163  A    between atoms: _393  and  _396
REMARK  164  A    between atoms: _399  and  _401
REMARK  165  A    between atoms: _401  and  _402
REMARK  166  A    between atoms: _401  and  _404
REMARK  167  A    between atoms: _404  and  _405
REMARK  168  A    between atoms: _411  and  _413
REMARK  169  A    between atoms: _413  and  _414
REMARK  170  A    between atoms: _413  and  _416
REMARK  171  A    between atoms: _416  and  _417
REMARK  172  A    between atoms: _420  and  _422
REMARK  173  A    between atoms: _422  and  _423
REMARK  174  A    between atoms: _422  and  _425
REMARK  175  A    between atoms: _425  and  _426
REMARK  176  A    between atoms: _429  and  _431
REMARK  177  A    between atoms: _431  and  _432
REMARK  178  A    between atoms: _431  and  _434
REMARK  179  A    between atoms: _434  and  _435
REMARK  180  A    between atoms: _435  and  _436
REMARK  181  A    between atoms: _439  and  _441
REMARK  182  A    between atoms: _441  and  _442
REMARK  183  A    between atoms: _441  and  _444
REMARK  184  A    between atoms: _444  and  _445
REMARK  185  A    between atoms: _447  and  _449
REMARK  186  A    between atoms: _449  and  _450
REMARK  187  A    between atoms: _449  and  _452
REMARK  188  A    between atoms: _452  and  _453
REMARK  189  A    between atoms: _456  and  _458
REMARK  190  A    between atoms: _458  and  _459
REMARK  191  A    between atoms: _458  and  _461
REMARK  192  A    between atoms: _461  and  _462
REMARK  193  A    between atoms: _462  and  _463
REMARK  194  A    between atoms: _465  and  _467
REMARK  195  A    between atoms: _467  and  _468
REMARK  196  A    between atoms: _467  and  _470
REMARK  197  A    between atoms: _470  and  _471
REMARK  198  A    between atoms: _476  and  _478
REMARK  199  A    between atoms: _478  and  _479
REMARK  200  A    between atoms: _478  and  _481
REMARK  201  A    between atoms: _481  and  _482
REMARK  202  A    between atoms: _487  and  _488
REMARK  203  A    between atoms: _490  and  _492
REMARK  204  A    between atoms: _492  and  _493
REMARK  205  A    between atoms: _492  and  _495
REMARK  206  A    between atoms: _495  and  _496
REMARK  207  A    between atoms: _499  and  _501
REMARK  208  A    between atoms: _501  and  _502
REMARK  209  A    between atoms: _501  and  _504
REMARK  210  A    between atoms: _504  and  _505
REMARK  211  A    between atoms: _505  and  _506
REMARK  212  A    between atoms: _506  and  _507
REMARK  213  A    between atoms: _507  and  _508
REMARK  214  A    between atoms: _512  and  _514
REMARK  215  A    between atoms: _514  and  _515
REMARK  216  A    between atoms: _517  and  _519
REMARK  217  A    between atoms: _519  and  _520
REMARK  218  A    between atoms: _519  and  _522
REMARK  219  A    between atoms: _522  and  _523
REMARK  220  A    between atoms: _528  and  _529
REMARK  221  A    between atoms: _531  and  _533
REMARK  222  A    between atoms: _533  and  _534
REMARK  223  A    between atoms: _536  and  _538
REMARK  224  A    between atoms: _538  and  _539
REMARK  225  A    between atoms: _538  and  _541
REMARK  226  A    between atoms: _541  and  _542
REMARK                            x       y       z     vdW  Elec       q    Type
REMARK                         _______ _______ _______ _____ _____    ______ ____
ROOT
ATOM      1  CA  TYR A   1      12.367   2.842  60.610  0.00  0.00    +0.149 C 
ENDROOT
BRANCH   1   2
ATOM      2  C   TYR A   1      12.330   1.909  59.396  0.00  0.00    +0.239 C 
ATOM      3  O   TYR A   1      11.338   1.218  59.166  0.00  0.00    -0.274 OA
ATOM      4  N   ILE A   2      13.409   1.897  58.621  0.00  0.00    -0.298 N 
ATOM      5  H   ILE A   2      14.219   2.499  58.870  0.00  0.00    +0.150 HD
BRANCH   4   6
ATOM      6  CA  ILE A   2      13.485   1.058  57.427  0.00  0.00    +0.137 C 
BRANCH   6   7
ATOM      7  C   ILE A   2      13.460  -0.430  57.764  0.00  0.00    +0.227 C 
ATOM      8  O   ILE A   2      12.972  -1.247  56.974  0.00  0.00    -0.286 OA
ENDBRANCH   6   7
BRANCH   6   9
ATOM      9  CB  ILE A   2      14.756   1.373  56.612  0.00  0.00    +0.026 C 
ATOM     10  CG2 ILE A   2      14.795   0.525  55.326  0.00  0.00    +0.002 C 
BRANCH   9  11
ATOM     11  CG1 ILE A   2      14.775   2.865  56.253  0.00  0.00    +0.002 C 
ATOM     12  CD1 ILE A   2      13.617   3.309  55.350  0.00  0.00    +0.000 C 
ENDBRANCH   9  11
ENDBRANCH   6   9
ENDBRANCH   4   6
ENDBRANCH   1   2
BRANCH   1  13
ATOM     13  N   TYR A   1      13.618   2.695  61.344  0.00  0.00    -0.238 NA
ATOM     14  H   TYR A   1      14.268   3.504  61.408  0.00  0.00    +0.142 HD
ENDBRANCH   1  13
BRANCH   1  15
ATOM     15  CB  TYR A   1      12.192   4.291  60.147  0.00  0.00    +0.053 C 
BRANCH  15  16
ATOM     16  CG  TYR A   1      11.135   4.468  59.073  0.00  0.00    -0.020 A 
ATOM     17  CD2 TYR A   1       9.774   4.369  59.373  0.00  0.00    -0.001 A 
ATOM     18  CE2 TYR A   1       8.803   4.501  58.371  0.00  0.00    +0.036 A 
ATOM     19  CZ  TYR A   1       9.202   4.735  57.061  0.00  0.00    +0.134 A 
ATOM     20  CE1 TYR A   1      10.547   4.837  56.747  0.00  0.00    +0.036 A 
ATOM     21  CD1 TYR A   1      11.502   4.704  57.749  0.00  0.00    -0.001 A 
BRANCH  19  22
ATOM     22  OH  TYR A   1       8.267   4.869  56.056  0.00  0.00    -0.506 OA
ATOM     23  HH  TYR A   1       8.416   4.168  55.373  0.00  0.00    +0.292 HD
ENDBRANCH  19  22
ENDBRANCH  15  16
ENDBRANCH   1  15
TORSDOF 9
REMARK  Name = ../refined-set-2016/1syi/1syi_pocket.pdb
REMARK  226 active torsions:
REMARK  status: ('A' for Active; 'I' for Inactive)
REMARK    1  A    between atoms: _1  and  _3
REMARK    2  A    between atoms: _3  and  _4
REMARK    3  A    between atoms: _3  and  _6
REMARK    4  A    between atoms: _6  and  _7
REMARK    5  A    between atoms: _10  and  _12
REMARK    6  A    between atoms: _12  and  _13
REMARK    7  A    between atoms: _12  and  _15
REMARK    8  A    between atoms: _15  and  _16
REMARK    9  A    between atoms: _16  and  _17
REMARK   10  A    between atoms: _20  and  _22
REMARK   11  A    between atoms: _22  and  _23
REMARK   12  A    between atoms: _22  and  _25
REMARK   13  A    between atoms: _25  and  _26
REMARK   14  A    between atoms: _29  and  _30
REMARK   15  A    between atoms: _35  and  _37
REMARK   16  A    between atoms: _37  and  _38
REMARK   17  A    between atoms: _37  and  _40
REMARK   18  A    between atoms: _40  and  _41
REMARK   19  A    between atoms: _46  and  _47
REMARK   20  A    between atoms: _49  and  _51
REMARK   21  A    between atoms: _51  and  _52
REMARK   22  A    between atoms: _51  and  _54
REMARK   23  A    between atoms: _54  and  _55
REMARK   24  A    between atoms: _55  and  _56
REMARK   25  A    between atoms: _56  and  _57
REMARK   26  A    between atoms: _57  and  _58
REMARK   27  A    between atoms: _62  and  _64
REMARK   28  A    between atoms: _64  and  _65
REMARK   29  A    between atoms: _64  and  _67
REMARK   30  A    between atoms: _67  and  _68
REMARK   31  A    between atoms: _73  and  _74
REMARK   32  A    between atoms: _76  and  _78
REMARK   33  A    between atoms: _78  and  _79
REMARK   34  A    between atoms: _81  and  _83
REMARK   35  A    between atoms: _83  and  _84
REMARK   36  A    between atoms: _87  and  _89
REMARK   37  A    between atoms: _89  and  _90
REMARK   38  A    between atoms: _89  and  _92
REMARK   39  A    between atoms: _92  and  _93
REMARK   40  A    between atoms: _103  and  _105
REMARK   41  A    between atoms: _105  and  _106
REMARK   42  A    between atoms: _105  and  _108
REMARK   43  A    between atoms: _108  and  _109
REMARK   44  A    between atoms: _109  and  _110
REMARK   45  A    between atoms: _112  and  _114
REMARK   46  A    between atoms: _114  and  _115
REMARK   47  A    between atoms: _114  and  _117
REMARK   48  A    between atoms: _120  and  _122
REMARK   49  A    between atoms: _122  and  _123
REMARK   50  A    between atoms: _127  and  _128
REMARK   51  A    between atoms: _133  and  _135
REMARK   52  A    between atoms: _135  and  _136
REMARK   53  A    between atoms: _135  and  _138
REMARK   54  A    between atoms: _138  and  _139
REMARK   55  A    between atoms: _142  and  _144
REMARK   56  A    between atoms: _144  and  _145
REMARK   57  A    between atoms: _144  and  _147
REMARK   58  A    between atoms: _147  and  _148
REMARK   59  A    between atoms: _151  and  _153
REMARK   60  A    between atoms: _153  and  _154
REMARK   61  A    between atoms: _153  and  _156
REMARK   62  A    between atoms: _156  and  _157
REMARK   63  A    between atoms: _160  and  _162
REMARK   64  A    between atoms: _162  and  _163
REMARK   65  A    between atoms: _162  and  _165
REMARK   66  A    between atoms: _165  and  _166
REMARK   67  A    between atoms: _169  and  _171
REMARK   68  A    between atoms: _171  and  _172
REMARK   69  A    between atoms: _171  and  _174
REMARK   70  A    between atoms: _174  and  _175
REMARK   71  A    between atoms: _175  and  _176
REMARK   72  A    between atoms: _176  and  _177
REMARK   73  A    between atoms: _186  and  _188
REMARK   74  A    between atoms: _188  and  _189
REMARK   75  A    between atoms: _188  and  _191
REMARK   76  A    between atoms: _191  and  _192
REMARK   77  A    between atoms: _198  and  _200
REMARK   78  A    between atoms: _200  and  _201
REMARK   79  A    between atoms: _200  and  _203
REMARK   80  A    between atoms: _203  and  _204
REMARK   81  A    between atoms: _210  and  _212
REMARK   82  A    between atoms: _212  and  _213
REMARK   83  A    between atoms: _212  and  _215
REMARK   84  A    between atoms: _215  and  _216
REMARK   85  A    between atoms: _219  and  _221
REMARK   86  A    between atoms: _221  and  _222
REMARK   87  A    between atoms: _224  and  _226
REMARK   88  A    between atoms: _226  and  _227
REMARK   89  A    between atoms: _226  and  _229
REMARK   90  A    between atoms: _229  and  _230
REMARK   91  A    between atoms: _233  and  _235
REMARK   92  A    between atoms: _235  and  _236
REMARK   93  A    between atoms: _235  and  _238
REMARK   94  A    between atoms: _238  and  _239
REMARK   95  A    between atoms: _241  and  _243
REMARK   96  A    between atoms: _243  and  _244
REMARK   97  A    between atoms: _243  and  _246
REMARK   98  A    between atoms: _246  and  _247
REMARK   99  A    between atoms: _247  and  _248
REMARK  100  A    between atoms: _250  and  _252
REMARK  101  A    between atoms: _252  and  _253
REMARK  102  A    between atoms: _252  and  _255
REMARK  103  A    between atoms: _255  and  _256
REMARK  104  A    between atoms: _259  and  _261
REMARK  105  A    between atoms: _261  and  _262
REMARK  106  A    between atoms: _261  and  _264
REMARK  107  A    between atoms: _264  and  _265
REMARK  108  A    between atoms: _268  and  _270
REMARK  109  A    between atoms: _270  and  _271
REMARK  110  A    between atoms: _270  and  _273
REMARK  111  A    between atoms: _273  and  _274
REMARK  112  A    between atoms: _277  and  _279
REMARK  113  A    between atoms: _279  and  _280
REMARK  114  A    between atoms: _279  and  _282
REMARK  115  A    between atoms: _282  and  _283
REMARK  116  A    between atoms: _285  and  _287
REMARK  117  A    between atoms: _287  and  _288
REMARK  118  A    between atoms: _290  and  _292
REMARK  119  A    between atoms: _292  and  _293
REMARK  120  A    between atoms: _292  and  _295
REMARK  121  A    between atoms: _295  and  _296
REMARK  122  A    between atoms: _298  and  _300
REMARK  123  A    between atoms: _300  and  _301
REMARK  124  A    between atoms: _300  and  _303
REMARK  125  A    between atoms: _303  and  _304
REMARK  126  A    between atoms: _307  and  _309
REMARK  127  A    between atoms: _309  and  _310
REMARK  128  A    between atoms: _309  and  _312
REMARK  129  A    between atoms: _312  and  _313
REMARK  130  A    between atoms: _313  and  _314
REMARK  131  A    between atoms: _314  and  _315
REMARK  132  A    between atoms: _315  and  _316
REMARK  133  A    between atoms: _320  and  _322
REMARK  134  A    between atoms: _322  and  _323
REMARK  135  A    between atoms: _322  and  _325
REMARK  136  A    between atoms: _325  and  _326
REMARK  137  A    between atoms: _326  and  _327
REMARK  138  A    between atoms: _330  and  _332
REMARK  139  A    between atoms: _332  and  _333
REMARK  140  A    between atoms: _332  and  _335
REMARK  141  A    between atoms: _335  and  _336
REMARK  142  A    between atoms: _342  and  _344
REMARK  143  A    between atoms: _344  and  _345
REMARK  144  A    between atoms: _344  and  _347
REMARK  145  A    between atoms: _347  and  _348
REMARK  146  A    between atoms: _354  and  _356
REMARK  147  A    between atoms: _356  and  _357
REMARK  148  A    between atoms: _356  and  _359
REMARK  149  A    between atoms: _362  and  _364
REMARK  150  A    between atoms: _364  and  _365
REMARK  151  A    between atoms: _364  and  _367
REMARK  152  A    between atoms: _367  and  _368
REMARK  153  A    between atoms: _371  and  _373
REMARK  154  A    between atoms: _373  and  _374
REMARK  155  A    between atoms: _373  and  _376
REMARK  156  A    between atoms: _376  and  _377
REMARK  157  A    between atoms: _380  and  _382
REMARK  158  A    between atoms: _382  and  _383
REMARK  159  A    between atoms: _386  and  _388
REMARK  160  A    between atoms: _388  and  _389
REMARK  161  A    between atoms: _391  and  _393
REMARK  162  A    between atoms: _393  and  _394
REMARK  163  A    between atoms: _393  and  _396
REMARK  164  A    between atoms: _399  and  _401
REMARK  165  A    between atoms: _401  and  _402
REMARK  166  A    between atoms: _401  and  _404
REMARK  167  A    between atoms: _404  and  _405
REMARK  168  A    between atoms: _411  and  _413
REMARK  169  A    between atoms: _413  and  _414
REMARK  170  A    between atoms: _413  and  _416
REMARK  171  A    between atoms: _416  and  _417
REMARK  172  A    between atoms: _420  and  _422
REMARK  173  A    between atoms: _422  and  _423
REMARK  174  A    between atoms: _422  and  _425
REMARK  175  A    between atoms: _425  and  _426
REMARK  176  A    between atoms: _429  and  _431
REMARK  177  A    between atoms: _431  and  _432
REMARK  178  A    between atoms: _431  and  _434
REMARK  179  A    between atoms: _434  and  _435
REMARK  180  A    between atoms: _435  and  _436
REMARK  181  A    between atoms: _439  and  _441
REMARK  182  A    between atoms: _441  and  _442
REMARK  183  A    between atoms: _441  and  _444
REMARK  184  A    between atoms: _444  and  _445
REMARK  185  A    between atoms: _447  and  _449
REMARK  186  A    between atoms: _449  and  _450
REMARK  187  A    between atoms: _449  and  _452
REMARK  188  A    between atoms: _452  and  _453
REMARK  189  A    between atoms: _456  and  _458
REMARK  190  A    between atoms: _458  and  _459
REMARK  191  A    between atoms: _458  and  _461
REMARK  192  A    between atoms: _461  and  _462
REMARK  193  A    between atoms: _462  and  _463
REMARK  194  A    between atoms: _465  and  _467
REMARK  195  A    between atoms: _467  and  _468
REMARK  196  A    between atoms: _467  and  _470
REMARK  197  A    between atoms: _470  and  _471
REMARK  198  A    between atoms: _476  and  _478
REMARK  199  A    between atoms: _478  and  _479
REMARK  200  A    between atoms: _478  and  _481
REMARK  201  A    between atoms: _481  and  _482
REMARK  202  A    between atoms: _487  and  _488
REMARK  203  A    between atoms: _490  and  _492
REMARK  204  A    between atoms: _492  and  _493
REMARK  205  A    between atoms: _492  and  _495
REMARK  206  A    between atoms: _495  and  _496
REMARK  207  A    between atoms: _499  and  _501
REMARK  208  A    between atoms: _501  and  _502
REMARK  209  A    between atoms: _501  and  _504
REMARK  210  A    between atoms: _504  and  _505
REMARK  211  A    between atoms: _505  and  _506
REMARK  212  A    between atoms: _506  and  _507
REMARK  213  A    between atoms: _507  and  _508
REMARK  214  A    between atoms: _512  and  _514
REMARK  215  A    between atoms: _514  and  _515
REMARK  216  A    between atoms: _517  and  _519
REMARK  217  A    between atoms: _519  and  _520
REMARK  218  A    between atoms: _519  and  _522
REMARK  219  A    between atoms: _522  and  _523
REMARK  220  A    between atoms: _528  and  _529
REMARK  221  A    between atoms: _531  and  _533
REMARK  222  A    between atoms: _533  and  _534
REMARK  223  A    between atoms: _536  and  _538
REMARK  224  A    between atoms: _538  and  _539
REMARK  225  A    between atoms: _538  and  _541
REMARK  226  A    between atoms: _541  and  _542
REMARK                            x       y       z     vdW  Elec       q    Type
REMARK                         _______ _______ _______ _____ _____    ______ ____
ROOT
ATOM      1  C   GLY A   2      19.626  15.764  67.336  0.00  0.00    +0.243 C 
ATOM      2  N   TYR A   3      18.327  15.688  67.044  0.00  0.00    -0.297 N 
ATOM      3  H   TYR A   3      17.732  14.995  67.541  0.00  0.00    +0.150 HD
ATOM      4  O   GLY A   2      20.413  16.496  66.733  0.00  0.00    -0.273 OA
ENDROOT
BRANCH   2   5
ATOM      5  CA  TYR A   3      17.725  16.560  66.038  0.00  0.00    +0.153 C 
BRANCH   5   6
ATOM      6  C   TYR A   3      17.123  17.718  66.813  0.00  0.00    +0.241 C 
ATOM      7  O   TYR A   3      16.607  17.532  67.918  0.00  0.00    -0.273 OA
ATOM      8  N   GLY A   4      17.174  18.907  66.232  0.00  0.00    -0.296 N 
ATOM      9  H   GLY A   4      17.625  19.017  65.301  0.00  0.00    +0.150 HD
BRANCH   8  10
ATOM     10  CA  GLY A   4      16.598  20.050  66.901  0.00  0.00    +0.163 C 
BRANCH  10  11
ATOM     11  C   GLY A   4      15.800  20.909  65.948  0.00  0.00    +0.229 C 
ATOM     12  O   GLY A   4      15.993  20.843  64.734  0.00  0.00    -0.286 OA
ENDBRANCH  10  11
ENDBRANCH   8  10
ENDBRANCH   5   6
BRANCH   5  13
ATOM     13  CB  TYR A   3      16.574  15.888  65.275  0.00  0.00    +0.055 C 
BRANCH  13  14
ATOM     14  CG  TYR A   3      16.943  14.745  64.368  0.00  0.00    -0.020 A 
ATOM     15  CD2 TYR A   3      16.053  13.692  64.161  0.00  0.00    -0.001 A 
ATOM     16  CE2 TYR A   3      16.366  12.648  63.294  0.00  0.00    +0.036 A 
ATOM     17  CZ  TYR A   3      17.581  12.653  62.628  0.00  0.00    +0.134 A 
ATOM     18  CE1 TYR A   3      18.482  13.688  62.816  0.00  0.00    +0.036 A 
ATOM     19  CD1 TYR A   3      18.160  14.727  63.682  0.00  0.00    -0.001 A 
BRANCH  17  20
ATOM     20  OH  TYR A   3      17.903  11.615  61.783  0.00  0.00    -0.506 OA
ATOM     21  HH  TYR A   3      18.799  11.775  61.392  0.00  0.00    +0.292 HD
ENDBRANCH  17  20
ENDBRANCH  13  14
ENDBRANCH   5  13
ENDBRANCH   2   5
BRANCH   1  22
ATOM     22  CA  GLY A   2      20.137  14.862  68.439  0.00  0.00    +0.176 C 
BRANCH  22  25
ATOM     23  C   LYS A   1      22.161  13.594  68.728  0.00  0.00    +0.238 C 
ATOM     24  O   LYS A   1      21.538  12.658  69.235  0.00  0.00    -0.274 OA
ATOM     25  N   GLY A   2      21.572  14.707  68.321  0.00  0.00    -0.296 N 
ATOM     26  H   GLY A   2      22.143  15.475  67.914  0.00  0.00    +0.150 HD
BRANCH  23  27
ATOM     27  CA  LYS A   1      23.674  13.523  68.532  0.00  0.00    +0.145 C 
BRANCH  27  28
ATOM     28  N   LYS A   1      24.116  12.171  68.842  0.00  0.00    -0.238 NA
ATOM     29  H   LYS A   1      23.597  11.365  68.439  0.00  0.00    +0.142 HD
ENDBRANCH  27  28
BRANCH  27  30
ATOM     30  CB  LYS A   1      24.012  13.869  67.073  0.00  0.00    +0.026 C 
BRANCH  30  31
ATOM     31  CG  LYS A   1      25.488  13.750  66.683  0.00  0.00    -0.000 C 
BRANCH  31  32
ATOM     32  CD  LYS A   1      26.365  14.733  67.460  0.00  0.00    -0.024 C 
BRANCH  32  33
ATOM     33  CE  LYS A   1      27.755  14.886  66.836  0.00  0.00    -0.086 C 
BRANCH  33  34
ATOM     34  NZ  LYS A   1      28.538  13.613  66.777  0.00  0.00    +0.380 N 
ATOM     35  HZ1 LYS A   1      28.672  13.245  67.740  0.00  0.00    -0.089 HD
ATOM     36  HZ2 LYS A   1      29.465  13.797  66.343  0.00  0.00    -0.089 HD
ATOM     37  HZ3 LYS A   1      28.020  12.915  66.207  0.00  0.00    -0.089 HD
ENDBRANCH  33  34
ENDBRANCH  32  33
ENDBRANCH  31  32
ENDBRANCH  30  31
ENDBRANCH  27  30
ENDBRANCH  23  27
ENDBRANCH  22  25
ENDBRANCH   1  22
TORSDOF 16
REMARK  Name = ../refined-set-2016/1syi/1syi_pocket.pdb
REMARK  226 active torsions:
REMARK  status: ('A' for Active; 'I' for Inactive)
REMARK    1  A    between atoms: _1  and  _3
REMARK    2  A    between atoms: _3  and  _4
REMARK    3  A    between atoms: _3  and  _6
REMARK    4  A    between atoms: _6  and  _7
REMARK    5  A    between atoms: _10  and  _12
REMARK    6  A    between atoms: _12  and  _13
REMARK    7  A    between atoms: _12  and  _15
REMARK    8  A    between atoms: _15  and  _16
REMARK    9  A    between atoms: _16  and  _17
REMARK   10  A    between atoms: _20  and  _22
REMARK   11  A    between atoms: _22  and  _23
REMARK   12  A    between atoms: _22  and  _25
REMARK   13  A    between atoms: _25  and  _26
REMARK   14  A    between atoms: _29  and  _30
REMARK   15  A    between atoms: _35  and  _37
REMARK   16  A    between atoms: _37  and  _38
REMARK   17  A    between atoms: _37  and  _40
REMARK   18  A    between atoms: _40  and  _41
REMARK   19  A    between atoms: _46  and  _47
REMARK   20  A    between atoms: _49  and  _51
REMARK   21  A    between atoms: _51  and  _52
REMARK   22  A    between atoms: _51  and  _54
REMARK   23  A    between atoms: _54  and  _55
REMARK   24  A    between atoms: _55  and  _56
REMARK   25  A    between atoms: _56  and  _57
REMARK   26  A    between atoms: _57  and  _58
REMARK   27  A    between atoms: _62  and  _64
REMARK   28  A    between atoms: _64  and  _65
REMARK   29  A    between atoms: _64  and  _67
REMARK   30  A    between atoms: _67  and  _68
REMARK   31  A    between atoms: _73  and  _74
REMARK   32  A    between atoms: _76  and  _78
REMARK   33  A    between atoms: _78  and  _79
REMARK   34  A    between atoms: _81  and  _83
REMARK   35  A    between atoms: _83  and  _84
REMARK   36  A    between atoms: _87  and  _89
REMARK   37  A    between atoms: _89  and  _90
REMARK   38  A    between atoms: _89  and  _92
REMARK   39  A    between atoms: _92  and  _93
REMARK   40  A    between atoms: _103  and  _105
REMARK   41  A    between atoms: _105  and  _106
REMARK   42  A    between atoms: _105  and  _108
REMARK   43  A    between atoms: _108  and  _109
REMARK   44  A    between atoms: _109  and  _110
REMARK   45  A    between atoms: _112  and  _114
REMARK   46  A    between atoms: _114  and  _115
REMARK   47  A    between atoms: _114  and  _117
REMARK   48  A    between atoms: _120  and  _122
REMARK   49  A    between atoms: _122  and  _123
REMARK   50  A    between atoms: _127  and  _128
REMARK   51  A    between atoms: _133  and  _135
REMARK   52  A    between atoms: _135  and  _136
REMARK   53  A    between atoms: _135  and  _138
REMARK   54  A    between atoms: _138  and  _139
REMARK   55  A    between atoms: _142  and  _144
REMARK   56  A    between atoms: _144  and  _145
REMARK   57  A    between atoms: _144  and  _147
REMARK   58  A    between atoms: _147  and  _148
REMARK   59  A    between atoms: _151  and  _153
REMARK   60  A    between atoms: _153  and  _154
REMARK   61  A    between atoms: _153  and  _156
REMARK   62  A    between atoms: _156  and  _157
REMARK   63  A    between atoms: _160  and  _162
REMARK   64  A    between atoms: _162  and  _163
REMARK   65  A    between atoms: _162  and  _165
REMARK   66  A    between atoms: _165  and  _166
REMARK   67  A    between atoms: _169  and  _171
REMARK   68  A    between atoms: _171  and  _172
REMARK   69  A    between atoms: _171  and  _174
REMARK   70  A    between atoms: _174  and  _175
REMARK   71  A    between atoms: _175  and  _176
REMARK   72  A    between atoms: _176  and  _177
REMARK   73  A    between atoms: _186  and  _188
REMARK   74  A    between atoms: _188  and  _189
REMARK   75  A    between atoms: _188  and  _191
REMARK   76  A    between atoms: _191  and  _192
REMARK   77  A    between atoms: _198  and  _200
REMARK   78  A    between atoms: _200  and  _201
REMARK   79  A    between atoms: _200  and  _203
REMARK   80  A    between atoms: _203  and  _204
REMARK   81  A    between atoms: _210  and  _212
REMARK   82  A    between atoms: _212  and  _213
REMARK   83  A    between atoms: _212  and  _215
REMARK   84  A    between atoms: _215  and  _216
REMARK   85  A    between atoms: _219  and  _221
REMARK   86  A    between atoms: _221  and  _222
REMARK   87  A    between atoms: _224  and  _226
REMARK   88  A    between atoms: _226  and  _227
REMARK   89  A    between atoms: _226  and  _229
REMARK   90  A    between atoms: _229  and  _230
REMARK   91  A    between atoms: _233  and  _235
REMARK   92  A    between atoms: _235  and  _236
REMARK   93  A    between atoms: _235  and  _238
REMARK   94  A    between atoms: _238  and  _239
REMARK   95  A    between atoms: _241  and  _243
REMARK   96  A    between atoms: _243  and  _244
REMARK   97  A    between atoms: _243  and  _246
REMARK   98  A    between atoms: _246  and  _247
REMARK   99  A    between atoms: _247  and  _248
REMARK  100  A    between atoms: _250  and  _252
REMARK  101  A    between atoms: _252  and  _253
REMARK  102  A    between atoms: _252  and  _255
REMARK  103  A    between atoms: _255  and  _256
REMARK  104  A    between atoms: _259  and  _261
REMARK  105  A    between atoms: _261  and  _262
REMARK  106  A    between atoms: _261  and  _264
REMARK  107  A    between atoms: _264  and  _265
REMARK  108  A    between atoms: _268  and  _270
REMARK  109  A    between atoms: _270  and  _271
REMARK  110  A    between atoms: _270  and  _273
REMARK  111  A    between atoms: _273  and  _274
REMARK  112  A    between atoms: _277  and  _279
REMARK  113  A    between atoms: _279  and  _280
REMARK  114  A    between atoms: _279  and  _282
REMARK  115  A    between atoms: _282  and  _283
REMARK  116  A    between atoms: _285  and  _287
REMARK  117  A    between atoms: _287  and  _288
REMARK  118  A    between atoms: _290  and  _292
REMARK  119  A    between atoms: _292  and  _293
REMARK  120  A    between atoms: _292  and  _295
REMARK  121  A    between atoms: _295  and  _296
REMARK  122  A    between atoms: _298  and  _300
REMARK  123  A    between atoms: _300  and  _301
REMARK  124  A    between atoms: _300  and  _303
REMARK  125  A    between atoms: _303  and  _304
REMARK  126  A    between atoms: _307  and  _309
REMARK  127  A    between atoms: _309  and  _310
REMARK  128  A    between atoms: _309  and  _312
REMARK  129  A    between atoms: _312  and  _313
REMARK  130  A    between atoms: _313  and  _314
REMARK  131  A    between atoms: _314  and  _315
REMARK  132  A    between atoms: _315  and  _316
REMARK  133  A    between atoms: _320  and  _322
REMARK  134  A    between atoms: _322  and  _323
REMARK  135  A    between atoms: _322  and  _325
REMARK  136  A    between atoms: _325  and  _326
REMARK  137  A    between atoms: _326  and  _327
REMARK  138  A    between atoms: _330  and  _332
REMARK  139  A    between atoms: _332  and  _333
REMARK  140  A    between atoms: _332  and  _335
REMARK  141  A    between atoms: _335  and  _336
REMARK  142  A    between atoms: _342  and  _344
REMARK  143  A    between atoms: _344  and  _345
REMARK  144  A    between atoms: _344  and  _347
REMARK  145  A    between atoms: _347  and  _348
REMARK  146  A    between atoms: _354  and  _356
REMARK  147  A    between atoms: _356  and  _357
REMARK  148  A    between atoms: _356  and  _359
REMARK  149  A    between atoms: _362  and  _364
REMARK  150  A    between atoms: _364  and  _365
REMARK  151  A    between atoms: _364  and  _367
REMARK  152  A    between atoms: _367  and  _368
REMARK  153  A    between atoms: _371  and  _373
REMARK  154  A    between atoms: _373  and  _374
REMARK  155  A    between atoms: _373  and  _376
REMARK  156  A    between atoms: _376  and  _377
REMARK  157  A    between atoms: _380  and  _382
REMARK  158  A    between atoms: _382  and  _383
REMARK  159  A    between atoms: _386  and  _388
REMARK  160  A    between atoms: _388  and  _389
REMARK  161  A    between atoms: _391  and  _393
REMARK  162  A    between atoms: _393  and  _394
REMARK  163  A    between atoms: _393  and  _396
REMARK  164  A    between atoms: _399  and  _401
REMARK  165  A    between atoms: _401  and  _402
REMARK  166  A    between atoms: _401  and  _404
REMARK  167  A    between atoms: _404  and  _405
REMARK  168  A    between atoms: _411  and  _413
REMARK  169  A    between atoms: _413  and  _414
REMARK  170  A    between atoms: _413  and  _416
REMARK  171  A    between atoms: _416  and  _417
REMARK  172  A    between atoms: _420  and  _422
REMARK  173  A    between atoms: _422  and  _423
REMARK  174  A    between atoms: _422  and  _425
REMARK  175  A    between atoms: _425  and  _426
REMARK  176  A    between atoms: _429  and  _431
REMARK  177  A    between atoms: _431  and  _432
REMARK  178  A    between atoms: _431  and  _434
REMARK  179  A    between atoms: _434  and  _435
REMARK  180  A    between atoms: _435  and  _436
REMARK  181  A    between atoms: _439  and  _441
REMARK  182  A    between atoms: _441  and  _442
REMARK  183  A    between atoms: _441  and  _444
REMARK  184  A    between atoms: _444  and  _445
REMARK  185  A    between atoms: _447  and  _449
REMARK  186  A    between atoms: _449  and  _450
REMARK  187  A    between atoms: _449  and  _452
REMARK  188  A    between atoms: _452  and  _453
REMARK  189  A    between atoms: _456  and  _458
REMARK  190  A    between atoms: _458  and  _459
REMARK  191  A    between atoms: _458  and  _461
REMARK  192  A    between atoms: _461  and  _462
REMARK  193  A    between atoms: _462  and  _463
REMARK  194  A    between atoms: _465  and  _467
REMARK  195  A    between atoms: _467  and  _468
REMARK  196  A    between atoms: _467  and  _470
REMARK  197  A    between atoms: _470  and  _471
REMARK  198  A    between atoms: _476  and  _478
REMARK  199  A    between atoms: _478  and  _479
REMARK  200  A    between atoms: _478  and  _481
REMARK  201  A    between atoms: _481  and  _482
REMARK  202  A    between atoms: _487  and  _488
REMARK  203  A    between atoms: _490  and  _492
REMARK  204  A    between atoms: _492  and  _493
REMARK  205  A    between atoms: _492  and  _495
REMARK  206  A    between atoms: _495  and  _496
REMARK  207  A    between atoms: _499  and  _501
REMARK  208  A    between atoms: _501  and  _502
REMARK  209  A    between atoms: _501  and  _504
REMARK  210  A    between atoms: _504  and  _505
REMARK  211  A    between atoms: _505  and  _506
REMARK  212  A    between atoms: _506  and  _507
REMARK  213  A    between atoms: _507  and  _508
REMARK  214  A    between atoms: _512  and  _514
REMARK  215  A    between atoms: _514  and  _515
REMARK  216  A    between atoms: _517  and  _519
REMARK  217  A    between atoms: _519  and  _520
REMARK  218  A    between atoms: _519  and  _522
REMARK  219  A    between atoms: _522  and  _523
REMARK  220  A    between atoms: _528  and  _529
REMARK  221  A    between atoms: _531  and  _533
REMARK  222  A    between atoms: _533  and  _534
REMARK  223  A    between atoms: _536  and  _538
REMARK  224  A    between atoms: _538  and  _539
REMARK  225  A    between atoms: _538  and  _541
REMARK  226  A    between atoms: _541  and  _542
REMARK                            x       y       z     vdW  Elec       q    Type
REMARK                         _______ _______ _______ _____ _____    ______ ____
ROOT
ATOM      1  CG  TRP A   1      10.210   4.811  63.926  0.00  0.00    -0.002 A 
ATOM      2  CD1 TRP A   1      11.466   4.316  63.707  0.00  0.00    +0.068 A 
ATOM      3  NE1 TRP A   1      12.308   5.319  63.296  0.00  0.00    -0.352 N 
ATOM      4  CE2 TRP A   1      11.606   6.494  63.239  0.00  0.00    +0.056 A 
ATOM      5  CZ2 TRP A   1      12.027   7.783  62.875  0.00  0.00    +0.017 A 
ATOM      6  CH2 TRP A   1      11.092   8.792  62.910  0.00  0.00    +0.001 A 
ATOM      7  CZ3 TRP A   1       9.761   8.545  63.296  0.00  0.00    +0.000 A 
ATOM      8  CE3 TRP A   1       9.341   7.258  63.658  0.00  0.00    +0.001 A 
ATOM      9  HE1 TRP A   1      13.316   5.205  63.065  0.00  0.00    +0.166 HD
ATOM     10  CD2 TRP A   1      10.276   6.212  63.631  0.00  0.00    +0.013 A 
ENDROOT
BRANCH   1  11
ATOM     11  CB  TRP A   1       9.006   4.037  64.397  0.00  0.00    +0.053 C 
BRANCH  11  12
ATOM     12  CA  TRP A   1       7.887   3.861  63.357  0.00  0.00    +0.137 C 
BRANCH  12  13
ATOM     13  N   TRP A   1       6.884   4.914  63.506  0.00  0.00    -0.239 NA
ATOM     14  H   TRP A   1       6.615   5.238  64.457  0.00  0.00    +0.142 HD
ENDBRANCH  12  13
BRANCH  12  15
ATOM     15  C   TRP A   1       7.328   2.445  63.498  0.00  0.00    +0.224 C 
ATOM     16  O   TRP A   1       7.447   1.621  62.588  0.00  0.00    -0.287 OA
ENDBRANCH  12  15
ENDBRANCH  11  12
ENDBRANCH   1  11
TORSDOF 4
REMARK  Name = ../refined-set-2016/1syi/1syi_pocket.pdb
REMARK  226 active torsions:
REMARK  status: ('A' for Active; 'I' for Inactive)
REMARK    1  A    between atoms: _1  and  _3
REMARK    2  A    between atoms: _3  and  _4
REMARK    3  A    between atoms: _3  and  _6
REMARK    4  A    between atoms: _6  and  _7
REMARK    5  A    between atoms: _10  and  _12
REMARK    6  A    between atoms: _12  and  _13
REMARK    7  A    between atoms: _12  and  _15
REMARK    8  A    between atoms: _15  and  _16
REMARK    9  A    between atoms: _16  and  _17
REMARK   10  A    between atoms: _20  and  _22
REMARK   11  A    between atoms: _22  and  _23
REMARK   12  A    between atoms: _22  and  _25
REMARK   13  A    between atoms: _25  and  _26
REMARK   14  A    between atoms: _29  and  _30
REMARK   15  A    between atoms: _35  and  _37
REMARK   16  A    between atoms: _37  and  _38
REMARK   17  A    between atoms: _37  and  _40
REMARK   18  A    between atoms: _40  and  _41
REMARK   19  A    between atoms: _46  and  _47
REMARK   20  A    between atoms: _49  and  _51
REMARK   21  A    between atoms: _51  and  _52
REMARK   22  A    between atoms: _51  and  _54
REMARK   23  A    between atoms: _54  and  _55
REMARK   24  A    between atoms: _55  and  _56
REMARK   25  A    between atoms: _56  and  _57
REMARK   26  A    between atoms: _57  and  _58
REMARK   27  A    between atoms: _62  and  _64
REMARK   28  A    between atoms: _64  and  _65
REMARK   29  A    between atoms: _64  and  _67
REMARK   30  A    between atoms: _67  and  _68
REMARK   31  A    between atoms: _73  and  _74
REMARK   32  A    between atoms: _76  and  _78
REMARK   33  A    between atoms: _78  and  _79
REMARK   34  A    between atoms: _81  and  _83
REMARK   35  A    between atoms: _83  and  _84
REMARK   36  A    between atoms: _87  and  _89
REMARK   37  A    between atoms: _89  and  _90
REMARK   38  A    between atoms: _89  and  _92
REMARK   39  A    between atoms: _92  and  _93
REMARK   40  A    between atoms: _103  and  _105
REMARK   41  A    between atoms: _105  and  _106
REMARK   42  A    between atoms: _105  and  _108
REMARK   43  A    between atoms: _108  and  _109
REMARK   44  A    between atoms: _109  and  _110
REMARK   45  A    between atoms: _112  and  _114
REMARK   46  A    between atoms: _114  and  _115
REMARK   47  A    between atoms: _114  and  _117
REMARK   48  A    between atoms: _120  and  _122
REMARK   49  A    between atoms: _122  and  _123
REMARK   50  A    between atoms: _127  and  _128
REMARK   51  A    between atoms: _133  and  _135
REMARK   52  A    between atoms: _135  and  _136
REMARK   53  A    between atoms: _135  and  _138
REMARK   54  A    between atoms: _138  and  _139
REMARK   55  A    between atoms: _142  and  _144
REMARK   56  A    between atoms: _144  and  _145
REMARK   57  A    between atoms: _144  and  _147
REMARK   58  A    between atoms: _147  and  _148
REMARK   59  A    between atoms: _151  and  _153
REMARK   60  A    between atoms: _153  and  _154
REMARK   61  A    between atoms: _153  and  _156
REMARK   62  A    between atoms: _156  and  _157
REMARK   63  A    between atoms: _160  and  _162
REMARK   64  A    between atoms: _162  and  _163
REMARK   65  A    between atoms: _162  and  _165
REMARK   66  A    between atoms: _165  and  _166
REMARK   67  A    between atoms: _169  and  _171
REMARK   68  A    between atoms: _171  and  _172
REMARK   69  A    between atoms: _171  and  _174
REMARK   70  A    between atoms: _174  and  _175
REMARK   71  A    between atoms: _175  and  _176
REMARK   72  A    between atoms: _176  and  _177
REMARK   73  A    between atoms: _186  and  _188
REMARK   74  A    between atoms: _188  and  _189
REMARK   75  A    between atoms: _188  and  _191
REMARK   76  A    between atoms: _191  and  _192
REMARK   77  A    between atoms: _198  and  _200
REMARK   78  A    between atoms: _200  and  _201
REMARK   79  A    between atoms: _200  and  _203
REMARK   80  A    between atoms: _203  and  _204
REMARK   81  A    between atoms: _210  and  _212
REMARK   82  A    between atoms: _212  and  _213
REMARK   83  A    between atoms: _212  and  _215
REMARK   84  A    between atoms: _215  and  _216
REMARK   85  A    between atoms: _219  and  _221
REMARK   86  A    between atoms: _221  and  _222
REMARK   87  A    between atoms: _224  and  _226
REMARK   88  A    between atoms: _226  and  _227
REMARK   89  A    between atoms: _226  and  _229
REMARK   90  A    between atoms: _229  and  _230
REMARK   91  A    between atoms: _233  and  _235
REMARK   92  A    between atoms: _235  and  _236
REMARK   93  A    between atoms: _235  and  _238
REMARK   94  A    between atoms: _238  and  _239
REMARK   95  A    between atoms: _241  and  _243
REMARK   96  A    between atoms: _243  and  _244
REMARK   97  A    between atoms: _243  and  _246
REMARK   98  A    between atoms: _246  and  _247
REMARK   99  A    between atoms: _247  and  _248
REMARK  100  A    between atoms: _250  and  _252
REMARK  101  A    between atoms: _252  and  _253
REMARK  102  A    between atoms: _252  and  _255
REMARK  103  A    between atoms: _255  and  _256
REMARK  104  A    between atoms: _259  and  _261
REMARK  105  A    between atoms: _261  and  _262
REMARK  106  A    between atoms: _261  and  _264
REMARK  107  A    between atoms: _264  and  _265
REMARK  108  A    between atoms: _268  and  _270
REMARK  109  A    between atoms: _270  and  _271
REMARK  110  A    between atoms: _270  and  _273
REMARK  111  A    between atoms: _273  and  _274
REMARK  112  A    between atoms: _277  and  _279
REMARK  113  A    between atoms: _279  and  _280
REMARK  114  A    between atoms: _279  and  _282
REMARK  115  A    between atoms: _282  and  _283
REMARK  116  A    between atoms: _285  and  _287
REMARK  117  A    between atoms: _287  and  _288
REMARK  118  A    between atoms: _290  and  _292
REMARK  119  A    between atoms: _292  and  _293
REMARK  120  A    between atoms: _292  and  _295
REMARK  121  A    between atoms: _295  and  _296
REMARK  122  A    between atoms: _298  and  _300
REMARK  123  A    between atoms: _300  and  _301
REMARK  124  A    between atoms: _300  and  _303
REMARK  125  A    between atoms: _303  and  _304
REMARK  126  A    between atoms: _307  and  _309
REMARK  127  A    between atoms: _309  and  _310
REMARK  128  A    between atoms: _309  and  _312
REMARK  129  A    between atoms: _312  and  _313
REMARK  130  A    between atoms: _313  and  _314
REMARK  131  A    between atoms: _314  and  _315
REMARK  132  A    between atoms: _315  and  _316
REMARK  133  A    between atoms: _320  and  _322
REMARK  134  A    between atoms: _322  and  _323
REMARK  135  A    between atoms: _322  and  _325
REMARK  136  A    between atoms: _325  and  _326
REMARK  137  A    between atoms: _326  and  _327
REMARK  138  A    between atoms: _330  and  _332
REMARK  139  A    between atoms: _332  and  _333
REMARK  140  A    between atoms: _332  and  _335
REMARK  141  A    between atoms: _335  and  _336
REMARK  142  A    between atoms: _342  and  _344
REMARK  143  A    between atoms: _344  and  _345
REMARK  144  A    between atoms: _344  and  _347
REMARK  145  A    between atoms: _347  and  _348
REMARK  146  A    between atoms: _354  and  _356
REMARK  147  A    between atoms: _356  and  _357
REMARK  148  A    between atoms: _356  and  _359
REMARK  149  A    between atoms: _362  and  _364
REMARK  150  A    between atoms: _364  and  _365
REMARK  151  A    between atoms: _364  and  _367
REMARK  152  A    between atoms: _367  and  _368
REMARK  153  A    between atoms: _371  and  _373
REMARK  154  A    between atoms: _373  and  _374
REMARK  155  A    between atoms: _373  and  _376
REMARK  156  A    between atoms: _376  and  _377
REMARK  157  A    between atoms: _380  and  _382
REMARK  158  A    between atoms: _382  and  _383
REMARK  159  A    between atoms: _386  and  _388
REMARK  160  A    between atoms: _388  and  _389
REMARK  161  A    between atoms: _391  and  _393
REMARK  162  A    between atoms: _393  and  _394
REMARK  163  A    between atoms: _393  and  _396
REMARK  164  A    between atoms: _399  and  _401
REMARK  165  A    between atoms: _401  and  _402
REMARK  166  A    between atoms: _401  and  _404
REMARK  167  A    between atoms: _404  and  _405
REMARK  168  A    between atoms: _411  and  _413
REMARK  169  A    between atoms: _413  and  _414
REMARK  170  A    between atoms: _413  and  _416
REMARK  171  A    between atoms: _416  and  _417
REMARK  172  A    between atoms: _420  and  _422
REMARK  173  A    between atoms: _422  and  _423
REMARK  174  A    between atoms: _422  and  _425
REMARK  175  A    between atoms: _425  and  _426
REMARK  176  A    between atoms: _429  and  _431
REMARK  177  A    between atoms: _431  and  _432
REMARK  178  A    between atoms: _431  and  _434
REMARK  179  A    between atoms: _434  and  _435
REMARK  180  A    between atoms: _435  and  _436
REMARK  181  A    between atoms: _439  and  _441
REMARK  182  A    between atoms: _441  and  _442
REMARK  183  A    between atoms: _441  and  _444
REMARK  184  A    between atoms: _444  and  _445
REMARK  185  A    between atoms: _447  and  _449
REMARK  186  A    between atoms: _449  and  _450
REMARK  187  A    between atoms: _449  and  _452
REMARK  188  A    between atoms: _452  and  _453
REMARK  189  A    between atoms: _456  and  _458
REMARK  190  A    between atoms: _458  and  _459
REMARK  191  A    between atoms: _458  and  _461
REMARK  192  A    between atoms: _461  and  _462
REMARK  193  A    between atoms: _462  and  _463
REMARK  194  A    between atoms: _465  and  _467
REMARK  195  A    between atoms: _467  and  _468
REMARK  196  A    between atoms: _467  and  _470
REMARK  197  A    between atoms: _470  and  _471
REMARK  198  A    between atoms: _476  and  _478
REMARK  199  A    between atoms: _478  and  _479
REMARK  200  A    between atoms: _478  and  _481
REMARK  201  A    between atoms: _481  and  _482
REMARK  202  A    between atoms: _487  and  _488
REMARK  203  A    between atoms: _490  and  _492
REMARK  204  A    between atoms: _492  and  _493
REMARK  205  A    between atoms: _492  and  _495
REMARK  206  A    between atoms: _495  and  _496
REMARK  207  A    between atoms: _499  and  _501
REMARK  208  A    between atoms: _501  and  _502
REMARK  209  A    between atoms: _501  and  _504
REMARK  210  A    between atoms: _504  and  _505
REMARK  211  A    between atoms: _505  and  _506
REMARK  212  A    between atoms: _506  and  _507
REMARK  213  A    between atoms: _507  and  _508
REMARK  214  A    between atoms: _512  and  _514
REMARK  215  A    between atoms: _514  and  _515
REMARK  216  A    between atoms: _517  and  _519
REMARK  217  A    between atoms: _519  and  _520
REMARK  218  A    between atoms: _519  and  _522
REMARK  219  A    between atoms: _522  and  _523
REMARK  220  A    between atoms: _528  and  _529
REMARK  221  A    between atoms: _531  and  _533
REMARK  222  A    between atoms: _533  and  _534
REMARK  223  A    between atoms: _536  and  _538
REMARK  224  A    between atoms: _538  and  _539
REMARK  225  A    between atoms: _538  and  _541
REMARK  226  A    between atoms: _541  and  _542
REMARK                            x       y       z     vdW  Elec       q    Type
REMARK                         _______ _______ _______ _____ _____    ______ ____
ROOT
ATOM      1  O   HOH     1      24.614  12.194  61.229  0.00  0.00    +0.000 OA
ENDROOT
TORSDOF 0
REMARK  Name = ../refined-set-2016/1syi/1syi_pocket.pdb
REMARK  226 active torsions:
REMARK  status: ('A' for Active; 'I' for Inactive)
REMARK    1  A    between atoms: _1  and  _3
REMARK    2  A    between atoms: _3  and  _4
REMARK    3  A    between atoms: _3  and  _6
REMARK    4  A    between atoms: _6  and  _7
REMARK    5  A    between atoms: _10  and  _12
REMARK    6  A    between atoms: _12  and  _13
REMARK    7  A    between atoms: _12  and  _15
REMARK    8  A    between atoms: _15  and  _16
REMARK    9  A    between atoms: _16  and  _17
REMARK   10  A    between atoms: _20  and  _22
REMARK   11  A    between atoms: _22  and  _23
REMARK   12  A    between atoms: _22  and  _25
REMARK   13  A    between atoms: _25  and  _26
REMARK   14  A    between atoms: _29  and  _30
REMARK   15  A    between atoms: _35  and  _37
REMARK   16  A    between atoms: _37  and  _38
REMARK   17  A    between atoms: _37  and  _40
REMARK   18  A    between atoms: _40  and  _41
REMARK   19  A    between atoms: _46  and  _47
REMARK   20  A    between atoms: _49  and  _51
REMARK   21  A    between atoms: _51  and  _52
REMARK   22  A    between atoms: _51  and  _54
REMARK   23  A    between atoms: _54  and  _55
REMARK   24  A    between atoms: _55  and  _56
REMARK   25  A    between atoms: _56  and  _57
REMARK   26  A    between atoms: _57  and  _58
REMARK   27  A    between atoms: _62  and  _64
REMARK   28  A    between atoms: _64  and  _65
REMARK   29  A    between atoms: _64  and  _67
REMARK   30  A    between atoms: _67  and  _68
REMARK   31  A    between atoms: _73  and  _74
REMARK   32  A    between atoms: _76  and  _78
REMARK   33  A    between atoms: _78  and  _79
REMARK   34  A    between atoms: _81  and  _83
REMARK   35  A    between atoms: _83  and  _84
REMARK   36  A    between atoms: _87  and  _89
REMARK   37  A    between atoms: _89  and  _90
REMARK   38  A    between atoms: _89  and  _92
REMARK   39  A    between atoms: _92  and  _93
REMARK   40  A    between atoms: _103  and  _105
REMARK   41  A    between atoms: _105  and  _106
REMARK   42  A    between atoms: _105  and  _108
REMARK   43  A    between atoms: _108  and  _109
REMARK   44  A    between atoms: _109  and  _110
REMARK   45  A    between atoms: _112  and  _114
REMARK   46  A    between atoms: _114  and  _115
REMARK   47  A    between atoms: _114  and  _117
REMARK   48  A    between atoms: _120  and  _122
REMARK   49  A    between atoms: _122  and  _123
REMARK   50  A    between atoms: _127  and  _128
REMARK   51  A    between atoms: _133  and  _135
REMARK   52  A    between atoms: _135  and  _136
REMARK   53  A    between atoms: _135  and  _138
REMARK   54  A    between atoms: _138  and  _139
REMARK   55  A    between atoms: _142  and  _144
REMARK   56  A    between atoms: _144  and  _145
REMARK   57  A    between atoms: _144  and  _147
REMARK   58  A    between atoms: _147  and  _148
REMARK   59  A    between atoms: _151  and  _153
REMARK   60  A    between atoms: _153  and  _154
REMARK   61  A    between atoms: _153  and  _156
REMARK   62  A    between atoms: _156  and  _157
REMARK   63  A    between atoms: _160  and  _162
REMARK   64  A    between atoms: _162  and  _163
REMARK   65  A    between atoms: _162  and  _165
REMARK   66  A    between atoms: _165  and  _166
REMARK   67  A    between atoms: _169  and  _171
REMARK   68  A    between atoms: _171  and  _172
REMARK   69  A    between atoms: _171  and  _174
REMARK   70  A    between atoms: _174  and  _175
REMARK   71  A    between atoms: _175  and  _176
REMARK   72  A    between atoms: _176  and  _177
REMARK   73  A    between atoms: _186  and  _188
REMARK   74  A    between atoms: _188  and  _189
REMARK   75  A    between atoms: _188  and  _191
REMARK   76  A    between atoms: _191  and  _192
REMARK   77  A    between atoms: _198  and  _200
REMARK   78  A    between atoms: _200  and  _201
REMARK   79  A    between atoms: _200  and  _203
REMARK   80  A    between atoms: _203  and  _204
REMARK   81  A    between atoms: _210  and  _212
REMARK   82  A    between atoms: _212  and  _213
REMARK   83  A    between atoms: _212  and  _215
REMARK   84  A    between atoms: _215  and  _216
REMARK   85  A    between atoms: _219  and  _221
REMARK   86  A    between atoms: _221  and  _222
REMARK   87  A    between atoms: _224  and  _226
REMARK   88  A    between atoms: _226  and  _227
REMARK   89  A    between atoms: _226  and  _229
REMARK   90  A    between atoms: _229  and  _230
REMARK   91  A    between atoms: _233  and  _235
REMARK   92  A    between atoms: _235  and  _236
REMARK   93  A    between atoms: _235  and  _238
REMARK   94  A    between atoms: _238  and  _239
REMARK   95  A    between atoms: _241  and  _243
REMARK   96  A    between atoms: _243  and  _244
REMARK   97  A    between atoms: _243  and  _246
REMARK   98  A    between atoms: _246  and  _247
REMARK   99  A    between atoms: _247  and  _248
REMARK  100  A    between atoms: _250  and  _252
REMARK  101  A    between atoms: _252  and  _253
REMARK  102  A    between atoms: _252  and  _255
REMARK  103  A    between atoms: _255  and  _256
REMARK  104  A    between atoms: _259  and  _261
REMARK  105  A    between atoms: _261  and  _262
REMARK  106  A    between atoms: _261  and  _264
REMARK  107  A    between atoms: _264  and  _265
REMARK  108  A    between atoms: _268  and  _270
REMARK  109  A    between atoms: _270  and  _271
REMARK  110  A    between atoms: _270  and  _273
REMARK  111  A    between atoms: _273  and  _274
REMARK  112  A    between atoms: _277  and  _279
REMARK  113  A    between atoms: _279  and  _280
REMARK  114  A    between atoms: _279  and  _282
REMARK  115  A    between atoms: _282  and  _283
REMARK  116  A    between atoms: _285  and  _287
REMARK  117  A    between atoms: _287  and  _288
REMARK  118  A    between atoms: _290  and  _292
REMARK  119  A    between atoms: _292  and  _293
REMARK  120  A    between atoms: _292  and  _295
REMARK  121  A    between atoms: _295  and  _296
REMARK  122  A    between atoms: _298  and  _300
REMARK  123  A    between atoms: _300  and  _301
REMARK  124  A    between atoms: _300  and  _303
REMARK  125  A    between atoms: _303  and  _304
REMARK  126  A    between atoms: _307  and  _309
REMARK  127  A    between atoms: _309  and  _310
REMARK  128  A    between atoms: _309  and  _312
REMARK  129  A    between atoms: _312  and  _313
REMARK  130  A    between atoms: _313  and  _314
REMARK  131  A    between atoms: _314  and  _315
REMARK  132  A    between atoms: _315  and  _316
REMARK  133  A    between atoms: _320  and  _322
REMARK  134  A    between atoms: _322  and  _323
REMARK  135  A    between atoms: _322  and  _325
REMARK  136  A    between atoms: _325  and  _326
REMARK  137  A    between atoms: _326  and  _327
REMARK  138  A    between atoms: _330  and  _332
REMARK  139  A    between atoms: _332  and  _333
REMARK  140  A    between atoms: _332  and  _335
REMARK  141  A    between atoms: _335  and  _336
REMARK  142  A    between atoms: _342  and  _344
REMARK  143  A    between atoms: _344  and  _345
REMARK  144  A    between atoms: _344  and  _347
REMARK  145  A    between atoms: _347  and  _348
REMARK  146  A    between atoms: _354  and  _356
REMARK  147  A    between atoms: _356  and  _357
REMARK  148  A    between atoms: _356  and  _359
REMARK  149  A    between atoms: _362  and  _364
REMARK  150  A    between atoms: _364  and  _365
REMARK  151  A    between atoms: _364  and  _367
REMARK  152  A    between atoms: _367  and  _368
REMARK  153  A    between atoms: _371  and  _373
REMARK  154  A    between atoms: _373  and  _374
REMARK  155  A    between atoms: _373  and  _376
REMARK  156  A    between atoms: _376  and  _377
REMARK  157  A    between atoms: _380  and  _382
REMARK  158  A    between atoms: _382  and  _383
REMARK  159  A    between atoms: _386  and  _388
REMARK  160  A    between atoms: _388  and  _389
REMARK  161  A    between atoms: _391  and  _393
REMARK  162  A    between atoms: _393  and  _394
REMARK  163  A    between atoms: _393  and  _396
REMARK  164  A    between atoms: _399  and  _401
REMARK  165  A    between atoms: _401  and  _402
REMARK  166  A    between atoms: _401  and  _404
REMARK  167  A    between atoms: _404  and  _405
REMARK  168  A    between atoms: _411  and  _413
REMARK  169  A    between atoms: _413  and  _414
REMARK  170  A    between atoms: _413  and  _416
REMARK  171  A    between atoms: _416  and  _417
REMARK  172  A    between atoms: _420  and  _422
REMARK  173  A    between atoms: _422  and  _423
REMARK  174  A    between atoms: _422  and  _425
REMARK  175  A    between atoms: _425  and  _426
REMARK  176  A    between atoms: _429  and  _431
REMARK  177  A    between atoms: _431  and  _432
REMARK  178  A    between atoms: _431  and  _434
REMARK  179  A    between atoms: _434  and  _435
REMARK  180  A    between atoms: _435  and  _436
REMARK  181  A    between atoms: _439  and  _441
REMARK  182  A    between atoms: _441  and  _442
REMARK  183  A    between atoms: _441  and  _444
REMARK  184  A    between atoms: _444  and  _445
REMARK  185  A    between atoms: _447  and  _449
REMARK  186  A    between atoms: _449  and  _450
REMARK  187  A    between atoms: _449  and  _452
REMARK  188  A    between atoms: _452  and  _453
REMARK  189  A    between atoms: _456  and  _458
REMARK  190  A    between atoms: _458  and  _459
REMARK  191  A    between atoms: _458  and  _461
REMARK  192  A    between atoms: _461  and  _462
REMARK  193  A    between atoms: _462  and  _463
REMARK  194  A    between atoms: _465  and  _467
REMARK  195  A    between atoms: _467  and  _468
REMARK  196  A    between atoms: _467  and  _470
REMARK  197  A    between atoms: _470  and  _471
REMARK  198  A    between atoms: _476  and  _478
REMARK  199  A    between atoms: _478  and  _479
REMARK  200  A    between atoms: _478  and  _481
REMARK  201  A    between atoms: _481  and  _482
REMARK  202  A    between atoms: _487  and  _488
REMARK  203  A    between atoms: _490  and  _492
REMARK  204  A    between atoms: _492  and  _493
REMARK  205  A    between atoms: _492  and  _495
REMARK  206  A    between atoms: _495  and  _496
REMARK  207  A    between atoms: _499  and  _501
REMARK  208  A    between atoms: _501  and  _502
REMARK  209  A    between atoms: _501  and  _504
REMARK  210  A    between atoms: _504  and  _505
REMARK  211  A    between atoms: _505  and  _506
REMARK  212  A    between atoms: _506  and  _507
REMARK  213  A    between atoms: _507  and  _508
REMARK  214  A    between atoms: _512  and  _514
REMARK  215  A    between atoms: _514  and  _515
REMARK  216  A    between atoms: _517  and  _519
REMARK  217  A    between atoms: _519  and  _520
REMARK  218  A    between atoms: _519  and  _522
REMARK  219  A    between atoms: _522  and  _523
REMARK  220  A    between atoms: _528  and  _529
REMARK  221  A    between atoms: _531  and  _533
REMARK  222  A    between atoms: _533  and  _534
REMARK  223  A    between atoms: _536  and  _538
REMARK  224  A    between atoms: _538  and  _539
REMARK  225  A    between atoms: _538  and  _541
REMARK  226  A    between atoms: _541  and  _542
REMARK                            x       y       z     vdW  Elec       q    Type
REMARK                         _______ _______ _______ _____ _____    ______ ____
ROOT
ATOM      1  O   HOH     1      26.403  12.723  63.320  0.00  0.00    +0.000 OA
ENDROOT
TORSDOF 0
REMARK  Name = ../refined-set-2016/1syi/1syi_pocket.pdb
REMARK  226 active torsions:
REMARK  status: ('A' for Active; 'I' for Inactive)
REMARK    1  A    between atoms: _1  and  _3
REMARK    2  A    between atoms: _3  and  _4
REMARK    3  A    between atoms: _3  and  _6
REMARK    4  A    between atoms: _6  and  _7
REMARK    5  A    between atoms: _10  and  _12
REMARK    6  A    between atoms: _12  and  _13
REMARK    7  A    between atoms: _12  and  _15
REMARK    8  A    between atoms: _15  and  _16
REMARK    9  A    between atoms: _16  and  _17
REMARK   10  A    between atoms: _20  and  _22
REMARK   11  A    between atoms: _22  and  _23
REMARK   12  A    between atoms: _22  and  _25
REMARK   13  A    between atoms: _25  and  _26
REMARK   14  A    between atoms: _29  and  _30
REMARK   15  A    between atoms: _35  and  _37
REMARK   16  A    between atoms: _37  and  _38
REMARK   17  A    between atoms: _37  and  _40
REMARK   18  A    between atoms: _40  and  _41
REMARK   19  A    between atoms: _46  and  _47
REMARK   20  A    between atoms: _49  and  _51
REMARK   21  A    between atoms: _51  and  _52
REMARK   22  A    between atoms: _51  and  _54
REMARK   23  A    between atoms: _54  and  _55
REMARK   24  A    between atoms: _55  and  _56
REMARK   25  A    between atoms: _56  and  _57
REMARK   26  A    between atoms: _57  and  _58
REMARK   27  A    between atoms: _62  and  _64
REMARK   28  A    between atoms: _64  and  _65
REMARK   29  A    between atoms: _64  and  _67
REMARK   30  A    between atoms: _67  and  _68
REMARK   31  A    between atoms: _73  and  _74
REMARK   32  A    between atoms: _76  and  _78
REMARK   33  A    between atoms: _78  and  _79
REMARK   34  A    between atoms: _81  and  _83
REMARK   35  A    between atoms: _83  and  _84
REMARK   36  A    between atoms: _87  and  _89
REMARK   37  A    between atoms: _89  and  _90
REMARK   38  A    between atoms: _89  and  _92
REMARK   39  A    between atoms: _92  and  _93
REMARK   40  A    between atoms: _103  and  _105
REMARK   41  A    between atoms: _105  and  _106
REMARK   42  A    between atoms: _105  and  _108
REMARK   43  A    between atoms: _108  and  _109
REMARK   44  A    between atoms: _109  and  _110
REMARK   45  A    between atoms: _112  and  _114
REMARK   46  A    between atoms: _114  and  _115
REMARK   47  A    between atoms: _114  and  _117
REMARK   48  A    between atoms: _120  and  _122
REMARK   49  A    between atoms: _122  and  _123
REMARK   50  A    between atoms: _127  and  _128
REMARK   51  A    between atoms: _133  and  _135
REMARK   52  A    between atoms: _135  and  _136
REMARK   53  A    between atoms: _135  and  _138
REMARK   54  A    between atoms: _138  and  _139
REMARK   55  A    between atoms: _142  and  _144
REMARK   56  A    between atoms: _144  and  _145
REMARK   57  A    between atoms: _144  and  _147
REMARK   58  A    between atoms: _147  and  _148
REMARK   59  A    between atoms: _151  and  _153
REMARK   60  A    between atoms: _153  and  _154
REMARK   61  A    between atoms: _153  and  _156
REMARK   62  A    between atoms: _156  and  _157
REMARK   63  A    between atoms: _160  and  _162
REMARK   64  A    between atoms: _162  and  _163
REMARK   65  A    between atoms: _162  and  _165
REMARK   66  A    between atoms: _165  and  _166
REMARK   67  A    between atoms: _169  and  _171
REMARK   68  A    between atoms: _171  and  _172
REMARK   69  A    between atoms: _171  and  _174
REMARK   70  A    between atoms: _174  and  _175
REMARK   71  A    between atoms: _175  and  _176
REMARK   72  A    between atoms: _176  and  _177
REMARK   73  A    between atoms: _186  and  _188
REMARK   74  A    between atoms: _188  and  _189
REMARK   75  A    between atoms: _188  and  _191
REMARK   76  A    between atoms: _191  and  _192
REMARK   77  A    between atoms: _198  and  _200
REMARK   78  A    between atoms: _200  and  _201
REMARK   79  A    between atoms: _200  and  _203
REMARK   80  A    between atoms: _203  and  _204
REMARK   81  A    between atoms: _210  and  _212
REMARK   82  A    between atoms: _212  and  _213
REMARK   83  A    between atoms: _212  and  _215
REMARK   84  A    between atoms: _215  and  _216
REMARK   85  A    between atoms: _219  and  _221
REMARK   86  A    between atoms: _221  and  _222
REMARK   87  A    between atoms: _224  and  _226
REMARK   88  A    between atoms: _226  and  _227
REMARK   89  A    between atoms: _226  and  _229
REMARK   90  A    between atoms: _229  and  _230
REMARK   91  A    between atoms: _233  and  _235
REMARK   92  A    between atoms: _235  and  _236
REMARK   93  A    between atoms: _235  and  _238
REMARK   94  A    between atoms: _238  and  _239
REMARK   95  A    between atoms: _241  and  _243
REMARK   96  A    between atoms: _243  and  _244
REMARK   97  A    between atoms: _243  and  _246
REMARK   98  A    between atoms: _246  and  _247
REMARK   99  A    between atoms: _247  and  _248
REMARK  100  A    between atoms: _250  and  _252
REMARK  101  A    between atoms: _252  and  _253
REMARK  102  A    between atoms: _252  and  _255
REMARK  103  A    between atoms: _255  and  _256
REMARK  104  A    between atoms: _259  and  _261
REMARK  105  A    between atoms: _261  and  _262
REMARK  106  A    between atoms: _261  and  _264
REMARK  107  A    between atoms: _264  and  _265
REMARK  108  A    between atoms: _268  and  _270
REMARK  109  A    between atoms: _270  and  _271
REMARK  110  A    between atoms: _270  and  _273
REMARK  111  A    between atoms: _273  and  _274
REMARK  112  A    between atoms: _277  and  _279
REMARK  113  A    between atoms: _279  and  _280
REMARK  114  A    between atoms: _279  and  _282
REMARK  115  A    between atoms: _282  and  _283
REMARK  116  A    between atoms: _285  and  _287
REMARK  117  A    between atoms: _287  and  _288
REMARK  118  A    between atoms: _290  and  _292
REMARK  119  A    between atoms: _292  and  _293
REMARK  120  A    between atoms: _292  and  _295
REMARK  121  A    between atoms: _295  and  _296
REMARK  122  A    between atoms: _298  and  _300
REMARK  123  A    between atoms: _300  and  _301
REMARK  124  A    between atoms: _300  and  _303
REMARK  125  A    between atoms: _303  and  _304
REMARK  126  A    between atoms: _307  and  _309
REMARK  127  A    between atoms: _309  and  _310
REMARK  128  A    between atoms: _309  and  _312
REMARK  129  A    between atoms: _312  and  _313
REMARK  130  A    between atoms: _313  and  _314
REMARK  131  A    between atoms: _314  and  _315
REMARK  132  A    between atoms: _315  and  _316
REMARK  133  A    between atoms: _320  and  _322
REMARK  134  A    between atoms: _322  and  _323
REMARK  135  A    between atoms: _322  and  _325
REMARK  136  A    between atoms: _325  and  _326
REMARK  137  A    between atoms: _326  and  _327
REMARK  138  A    between atoms: _330  and  _332
REMARK  139  A    between atoms: _332  and  _333
REMARK  140  A    between atoms: _332  and  _335
REMARK  141  A    between atoms: _335  and  _336
REMARK  142  A    between atoms: _342  and  _344
REMARK  143  A    between atoms: _344  and  _345
REMARK  144  A    between atoms: _344  and  _347
REMARK  145  A    between atoms: _347  and  _348
REMARK  146  A    between atoms: _354  and  _356
REMARK  147  A    between atoms: _356  and  _357
REMARK  148  A    between atoms: _356  and  _359
REMARK  149  A    between atoms: _362  and  _364
REMARK  150  A    between atoms: _364  and  _365
REMARK  151  A    between atoms: _364  and  _367
REMARK  152  A    between atoms: _367  and  _368
REMARK  153  A    between atoms: _371  and  _373
REMARK  154  A    between atoms: _373  and  _374
REMARK  155  A    between atoms: _373  and  _376
REMARK  156  A    between atoms: _376  and  _377
REMARK  157  A    between atoms: _380  and  _382
REMARK  158  A    between atoms: _382  and  _383
REMARK  159  A    between atoms: _386  and  _388
REMARK  160  A    between atoms: _388  and  _389
REMARK  161  A    between atoms: _391  and  _393
REMARK  162  A    between atoms: _393  and  _394
REMARK  163  A    between atoms: _393  and  _396
REMARK  164  A    between atoms: _399  and  _401
REMARK  165  A    between atoms: _401  and  _402
REMARK  166  A    between atoms: _401  and  _404
REMARK  167  A    between atoms: _404  and  _405
REMARK  168  A    between atoms: _411  and  _413
REMARK  169  A    between atoms: _413  and  _414
REMARK  170  A    between atoms: _413  and  _416
REMARK  171  A    between atoms: _416  and  _417
REMARK  172  A    between atoms: _420  and  _422
REMARK  173  A    between atoms: _422  and  _423
REMARK  174  A    between atoms: _422  and  _425
REMARK  175  A    between atoms: _425  and  _426
REMARK  176  A    between atoms: _429  and  _431
REMARK  177  A    between atoms: _431  and  _432
REMARK  178  A    between atoms: _431  and  _434
REMARK  179  A    between atoms: _434  and  _435
REMARK  180  A    between atoms: _435  and  _436
REMARK  181  A    between atoms: _439  and  _441
REMARK  182  A    between atoms: _441  and  _442
REMARK  183  A    between atoms: _441  and  _444
REMARK  184  A    between atoms: _444  and  _445
REMARK  185  A    between atoms: _447  and  _449
REMARK  186  A    between atoms: _449  and  _450
REMARK  187  A    between atoms: _449  and  _452
REMARK  188  A    between atoms: _452  and  _453
REMARK  189  A    between atoms: _456  and  _458
REMARK  190  A    between atoms: _458  and  _459
REMARK  191  A    between atoms: _458  and  _461
REMARK  192  A    between atoms: _461  and  _462
REMARK  193  A    between atoms: _462  and  _463
REMARK  194  A    between atoms: _465  and  _467
REMARK  195  A    between atoms: _467  and  _468
REMARK  196  A    between atoms: _467  and  _470
REMARK  197  A    between atoms: _470  and  _471
REMARK  198  A    between atoms: _476  and  _478
REMARK  199  A    between atoms: _478  and  _479
REMARK  200  A    between atoms: _478  and  _481
REMARK  201  A    between atoms: _481  and  _482
REMARK  202  A    between atoms: _487  and  _488
REMARK  203  A    between atoms: _490  and  _492
REMARK  204  A    between atoms: _492  and  _493
REMARK  205  A    between atoms: _492  and  _495
REMARK  206  A    between atoms: _495  and  _496
REMARK  207  A    between atoms: _499  and  _501
REMARK  208  A    between atoms: _501  and  _502
REMARK  209  A    between atoms: _501  and  _504
REMARK  210  A    between atoms: _504  and  _505
REMARK  211  A    between atoms: _505  and  _506
REMARK  212  A    between atoms: _506  and  _507
REMARK  213  A    between atoms: _507  and  _508
REMARK  214  A    between atoms: _512  and  _514
REMARK  215  A    between atoms: _514  and  _515
REMARK  216  A    between atoms: _517  and  _519
REMARK  217  A    between atoms: _519  and  _520
REMARK  218  A    between atoms: _519  and  _522
REMARK  219  A    between atoms: _522  and  _523
REMARK  220  A    between atoms: _528  and  _529
REMARK  221  A    between atoms: _531  and  _533
REMARK  222  A    between atoms: _533  and  _534
REMARK  223  A    between atoms: _536  and  _538
REMARK  224  A    between atoms: _538  and  _539
REMARK  225  A    between atoms: _538  and  _541
REMARK  226  A    between atoms: _541  and  _542
REMARK                            x       y       z     vdW  Elec       q    Type
REMARK                         _______ _______ _______ _____ _____    ______ ____
ROOT
ATOM      1  O   HOH     1      16.233   9.464  61.333  0.00  0.00    +0.000 OA
ENDROOT
TORSDOF 0
REMARK  Name = ../refined-set-2016/1syi/1syi_pocket.pdb
REMARK  226 active torsions:
REMARK  status: ('A' for Active; 'I' for Inactive)
REMARK    1  A    between atoms: _1  and  _3
REMARK    2  A    between atoms: _3  and  _4
REMARK    3  A    between atoms: _3  and  _6
REMARK    4  A    between atoms: _6  and  _7
REMARK    5  A    between atoms: _10  and  _12
REMARK    6  A    between atoms: _12  and  _13
REMARK    7  A    between atoms: _12  and  _15
REMARK    8  A    between atoms: _15  and  _16
REMARK    9  A    between atoms: _16  and  _17
REMARK   10  A    between atoms: _20  and  _22
REMARK   11  A    between atoms: _22  and  _23
REMARK   12  A    between atoms: _22  and  _25
REMARK   13  A    between atoms: _25  and  _26
REMARK   14  A    between atoms: _29  and  _30
REMARK   15  A    between atoms: _35  and  _37
REMARK   16  A    between atoms: _37  and  _38
REMARK   17  A    between atoms: _37  and  _40
REMARK   18  A    between atoms: _40  and  _41
REMARK   19  A    between atoms: _46  and  _47
REMARK   20  A    between atoms: _49  and  _51
REMARK   21  A    between atoms: _51  and  _52
REMARK   22  A    between atoms: _51  and  _54
REMARK   23  A    between atoms: _54  and  _55
REMARK   24  A    between atoms: _55  and  _56
REMARK   25  A    between atoms: _56  and  _57
REMARK   26  A    between atoms: _57  and  _58
REMARK   27  A    between atoms: _62  and  _64
REMARK   28  A    between atoms: _64  and  _65
REMARK   29  A    between atoms: _64  and  _67
REMARK   30  A    between atoms: _67  and  _68
REMARK   31  A    between atoms: _73  and  _74
REMARK   32  A    between atoms: _76  and  _78
REMARK   33  A    between atoms: _78  and  _79
REMARK   34  A    between atoms: _81  and  _83
REMARK   35  A    between atoms: _83  and  _84
REMARK   36  A    between atoms: _87  and  _89
REMARK   37  A    between atoms: _89  and  _90
REMARK   38  A    between atoms: _89  and  _92
REMARK   39  A    between atoms: _92  and  _93
REMARK   40  A    between atoms: _103  and  _105
REMARK   41  A    between atoms: _105  and  _106
REMARK   42  A    between atoms: _105  and  _108
REMARK   43  A    between atoms: _108  and  _109
REMARK   44  A    between atoms: _109  and  _110
REMARK   45  A    between atoms: _112  and  _114
REMARK   46  A    between atoms: _114  and  _115
REMARK   47  A    between atoms: _114  and  _117
REMARK   48  A    between atoms: _120  and  _122
REMARK   49  A    between atoms: _122  and  _123
REMARK   50  A    between atoms: _127  and  _128
REMARK   51  A    between atoms: _133  and  _135
REMARK   52  A    between atoms: _135  and  _136
REMARK   53  A    between atoms: _135  and  _138
REMARK   54  A    between atoms: _138  and  _139
REMARK   55  A    between atoms: _142  and  _144
REMARK   56  A    between atoms: _144  and  _145
REMARK   57  A    between atoms: _144  and  _147
REMARK   58  A    between atoms: _147  and  _148
REMARK   59  A    between atoms: _151  and  _153
REMARK   60  A    between atoms: _153  and  _154
REMARK   61  A    between atoms: _153  and  _156
REMARK   62  A    between atoms: _156  and  _157
REMARK   63  A    between atoms: _160  and  _162
REMARK   64  A    between atoms: _162  and  _163
REMARK   65  A    between atoms: _162  and  _165
REMARK   66  A    between atoms: _165  and  _166
REMARK   67  A    between atoms: _169  and  _171
REMARK   68  A    between atoms: _171  and  _172
REMARK   69  A    between atoms: _171  and  _174
REMARK   70  A    between atoms: _174  and  _175
REMARK   71  A    between atoms: _175  and  _176
REMARK   72  A    between atoms: _176  and  _177
REMARK   73  A    between atoms: _186  and  _188
REMARK   74  A    between atoms: _188  and  _189
REMARK   75  A    between atoms: _188  and  _191
REMARK   76  A    between atoms: _191  and  _192
REMARK   77  A    between atoms: _198  and  _200
REMARK   78  A    between atoms: _200  and  _201
REMARK   79  A    between atoms: _200  and  _203
REMARK   80  A    between atoms: _203  and  _204
REMARK   81  A    between atoms: _210  and  _212
REMARK   82  A    between atoms: _212  and  _213
REMARK   83  A    between atoms: _212  and  _215
REMARK   84  A    between atoms: _215  and  _216
REMARK   85  A    between atoms: _219  and  _221
REMARK   86  A    between atoms: _221  and  _222
REMARK   87  A    between atoms: _224  and  _226
REMARK   88  A    between atoms: _226  and  _227
REMARK   89  A    between atoms: _226  and  _229
REMARK   90  A    between atoms: _229  and  _230
REMARK   91  A    between atoms: _233  and  _235
REMARK   92  A    between atoms: _235  and  _236
REMARK   93  A    between atoms: _235  and  _238
REMARK   94  A    between atoms: _238  and  _239
REMARK   95  A    between atoms: _241  and  _243
REMARK   96  A    between atoms: _243  and  _244
REMARK   97  A    between atoms: _243  and  _246
REMARK   98  A    between atoms: _246  and  _247
REMARK   99  A    between atoms: _247  and  _248
REMARK  100  A    between atoms: _250  and  _252
REMARK  101  A    between atoms: _252  and  _253
REMARK  102  A    between atoms: _252  and  _255
REMARK  103  A    between atoms: _255  and  _256
REMARK  104  A    between atoms: _259  and  _261
REMARK  105  A    between atoms: _261  and  _262
REMARK  106  A    between atoms: _261  and  _264
REMARK  107  A    between atoms: _264  and  _265
REMARK  108  A    between atoms: _268  and  _270
REMARK  109  A    between atoms: _270  and  _271
REMARK  110  A    between atoms: _270  and  _273
REMARK  111  A    between atoms: _273  and  _274
REMARK  112  A    between atoms: _277  and  _279
REMARK  113  A    between atoms: _279  and  _280
REMARK  114  A    between atoms: _279  and  _282
REMARK  115  A    between atoms: _282  and  _283
REMARK  116  A    between atoms: _285  and  _287
REMARK  117  A    between atoms: _287  and  _288
REMARK  118  A    between atoms: _290  and  _292
REMARK  119  A    between atoms: _292  and  _293
REMARK  120  A    between atoms: _292  and  _295
REMARK  121  A    between atoms: _295  and  _296
REMARK  122  A    between atoms: _298  and  _300
REMARK  123  A    between atoms: _300  and  _301
REMARK  124  A    between atoms: _300  and  _303
REMARK  125  A    between atoms: _303  and  _304
REMARK  126  A    between atoms: _307  and  _309
REMARK  127  A    between atoms: _309  and  _310
REMARK  128  A    between atoms: _309  and  _312
REMARK  129  A    between atoms: _312  and  _313
REMARK  130  A    between atoms: _313  and  _314
REMARK  131  A    between atoms: _314  and  _315
REMARK  132  A    between atoms: _315  and  _316
REMARK  133  A    between atoms: _320  and  _322
REMARK  134  A    between atoms: _322  and  _323
REMARK  135  A    between atoms: _322  and  _325
REMARK  136  A    between atoms: _325  and  _326
REMARK  137  A    between atoms: _326  and  _327
REMARK  138  A    between atoms: _330  and  _332
REMARK  139  A    between atoms: _332  and  _333
REMARK  140  A    between atoms: _332  and  _335
REMARK  141  A    between atoms: _335  and  _336
REMARK  142  A    between atoms: _342  and  _344
REMARK  143  A    between atoms: _344  and  _345
REMARK  144  A    between atoms: _344  and  _347
REMARK  145  A    between atoms: _347  and  _348
REMARK  146  A    between atoms: _354  and  _356
REMARK  147  A    between atoms: _356  and  _357
REMARK  148  A    between atoms: _356  and  _359
REMARK  149  A    between atoms: _362  and  _364
REMARK  150  A    between atoms: _364  and  _365
REMARK  151  A    between atoms: _364  and  _367
REMARK  152  A    between atoms: _367  and  _368
REMARK  153  A    between atoms: _371  and  _373
REMARK  154  A    between atoms: _373  and  _374
REMARK  155  A    between atoms: _373  and  _376
REMARK  156  A    between atoms: _376  and  _377
REMARK  157  A    between atoms: _380  and  _382
REMARK  158  A    between atoms: _382  and  _383
REMARK  159  A    between atoms: _386  and  _388
REMARK  160  A    between atoms: _388  and  _389
REMARK  161  A    between atoms: _391  and  _393
REMARK  162  A    between atoms: _393  and  _394
REMARK  163  A    between atoms: _393  and  _396
REMARK  164  A    between atoms: _399  and  _401
REMARK  165  A    between atoms: _401  and  _402
REMARK  166  A    between atoms: _401  and  _404
REMARK  167  A    between atoms: _404  and  _405
REMARK  168  A    between atoms: _411  and  _413
REMARK  169  A    between atoms: _413  and  _414
REMARK  170  A    between atoms: _413  and  _416
REMARK  171  A    between atoms: _416  and  _417
REMARK  172  A    between atoms: _420  and  _422
REMARK  173  A    between atoms: _422  and  _423
REMARK  174  A    between atoms: _422  and  _425
REMARK  175  A    between atoms: _425  and  _426
REMARK  176  A    between atoms: _429  and  _431
REMARK  177  A    between atoms: _431  and  _432
REMARK  178  A    between atoms: _431  and  _434
REMARK  179  A    between atoms: _434  and  _435
REMARK  180  A    between atoms: _435  and  _436
REMARK  181  A    between atoms: _439  and  _441
REMARK  182  A    between atoms: _441  and  _442
REMARK  183  A    between atoms: _441  and  _444
REMARK  184  A    between atoms: _444  and  _445
REMARK  185  A    between atoms: _447  and  _449
REMARK  186  A    between atoms: _449  and  _450
REMARK  187  A    between atoms: _449  and  _452
REMARK  188  A    between atoms: _452  and  _453
REMARK  189  A    between atoms: _456  and  _458
REMARK  190  A    between atoms: _458  and  _459
REMARK  191  A    between atoms: _458  and  _461
REMARK  192  A    between atoms: _461  and  _462
REMARK  193  A    between atoms: _462  and  _463
REMARK  194  A    between atoms: _465  and  _467
REMARK  195  A    between atoms: _467  and  _468
REMARK  196  A    between atoms: _467  and  _470
REMARK  197  A    between atoms: _470  and  _471
REMARK  198  A    between atoms: _476  and  _478
REMARK  199  A    between atoms: _478  and  _479
REMARK  200  A    between atoms: _478  and  _481
REMARK  201  A    between atoms: _481  and  _482
REMARK  202  A    between atoms: _487  and  _488
REMARK  203  A    between atoms: _490  and  _492
REMARK  204  A    between atoms: _492  and  _493
REMARK  205  A    between atoms: _492  and  _495
REMARK  206  A    between atoms: _495  and  _496
REMARK  207  A    between atoms: _499  and  _501
REMARK  208  A    between atoms: _501  and  _502
REMARK  209  A    between atoms: _501  and  _504
REMARK  210  A    between atoms: _504  and  _505
REMARK  211  A    between atoms: _505  and  _506
REMARK  212  A    between atoms: _506  and  _507
REMARK  213  A    between atoms: _507  and  _508
REMARK  214  A    between atoms: _512  and  _514
REMARK  215  A    between atoms: _514  and  _515
REMARK  216  A    between atoms: _517  and  _519
REMARK  217  A    between atoms: _519  and  _520
REMARK  218  A    between atoms: _519  and  _522
REMARK  219  A    between atoms: _522  and  _523
REMARK  220  A    between atoms: _528  and  _529
REMARK  221  A    between atoms: _531  and  _533
REMARK  222  A    between atoms: _533  and  _534
REMARK  223  A    between atoms: _536  and  _538
REMARK  224  A    between atoms: _538  and  _539
REMARK  225  A    between atoms: _538  and  _541
REMARK  226  A    between atoms: _541  and  _542
REMARK                            x       y       z     vdW  Elec       q    Type
REMARK                         _______ _______ _______ _____ _____    ______ ____
ROOT
ATOM      1  O   HOH     1      14.434  20.872  62.254  0.00  0.00    +0.000 OA
ENDROOT
TORSDOF 0
REMARK  Name = ../refined-set-2016/1syi/1syi_pocket.pdb
REMARK  226 active torsions:
REMARK  status: ('A' for Active; 'I' for Inactive)
REMARK    1  A    between atoms: _1  and  _3
REMARK    2  A    between atoms: _3  and  _4
REMARK    3  A    between atoms: _3  and  _6
REMARK    4  A    between atoms: _6  and  _7
REMARK    5  A    between atoms: _10  and  _12
REMARK    6  A    between atoms: _12  and  _13
REMARK    7  A    between atoms: _12  and  _15
REMARK    8  A    between atoms: _15  and  _16
REMARK    9  A    between atoms: _16  and  _17
REMARK   10  A    between atoms: _20  and  _22
REMARK   11  A    between atoms: _22  and  _23
REMARK   12  A    between atoms: _22  and  _25
REMARK   13  A    between atoms: _25  and  _26
REMARK   14  A    between atoms: _29  and  _30
REMARK   15  A    between atoms: _35  and  _37
REMARK   16  A    between atoms: _37  and  _38
REMARK   17  A    between atoms: _37  and  _40
REMARK   18  A    between atoms: _40  and  _41
REMARK   19  A    between atoms: _46  and  _47
REMARK   20  A    between atoms: _49  and  _51
REMARK   21  A    between atoms: _51  and  _52
REMARK   22  A    between atoms: _51  and  _54
REMARK   23  A    between atoms: _54  and  _55
REMARK   24  A    between atoms: _55  and  _56
REMARK   25  A    between atoms: _56  and  _57
REMARK   26  A    between atoms: _57  and  _58
REMARK   27  A    between atoms: _62  and  _64
REMARK   28  A    between atoms: _64  and  _65
REMARK   29  A    between atoms: _64  and  _67
REMARK   30  A    between atoms: _67  and  _68
REMARK   31  A    between atoms: _73  and  _74
REMARK   32  A    between atoms: _76  and  _78
REMARK   33  A    between atoms: _78  and  _79
REMARK   34  A    between atoms: _81  and  _83
REMARK   35  A    between atoms: _83  and  _84
REMARK   36  A    between atoms: _87  and  _89
REMARK   37  A    between atoms: _89  and  _90
REMARK   38  A    between atoms: _89  and  _92
REMARK   39  A    between atoms: _92  and  _93
REMARK   40  A    between atoms: _103  and  _105
REMARK   41  A    between atoms: _105  and  _106
REMARK   42  A    between atoms: _105  and  _108
REMARK   43  A    between atoms: _108  and  _109
REMARK   44  A    between atoms: _109  and  _110
REMARK   45  A    between atoms: _112  and  _114
REMARK   46  A    between atoms: _114  and  _115
REMARK   47  A    between atoms: _114  and  _117
REMARK   48  A    between atoms: _120  and  _122
REMARK   49  A    between atoms: _122  and  _123
REMARK   50  A    between atoms: _127  and  _128
REMARK   51  A    between atoms: _133  and  _135
REMARK   52  A    between atoms: _135  and  _136
REMARK   53  A    between atoms: _135  and  _138
REMARK   54  A    between atoms: _138  and  _139
REMARK   55  A    between atoms: _142  and  _144
REMARK   56  A    between atoms: _144  and  _145
REMARK   57  A    between atoms: _144  and  _147
REMARK   58  A    between atoms: _147  and  _148
REMARK   59  A    between atoms: _151  and  _153
REMARK   60  A    between atoms: _153  and  _154
REMARK   61  A    between atoms: _153  and  _156
REMARK   62  A    between atoms: _156  and  _157
REMARK   63  A    between atoms: _160  and  _162
REMARK   64  A    between atoms: _162  and  _163
REMARK   65  A    between atoms: _162  and  _165
REMARK   66  A    between atoms: _165  and  _166
REMARK   67  A    between atoms: _169  and  _171
REMARK   68  A    between atoms: _171  and  _172
REMARK   69  A    between atoms: _171  and  _174
REMARK   70  A    between atoms: _174  and  _175
REMARK   71  A    between atoms: _175  and  _176
REMARK   72  A    between atoms: _176  and  _177
REMARK   73  A    between atoms: _186  and  _188
REMARK   74  A    between atoms: _188  and  _189
REMARK   75  A    between atoms: _188  and  _191
REMARK   76  A    between atoms: _191  and  _192
REMARK   77  A    between atoms: _198  and  _200
REMARK   78  A    between atoms: _200  and  _201
REMARK   79  A    between atoms: _200  and  _203
REMARK   80  A    between atoms: _203  and  _204
REMARK   81  A    between atoms: _210  and  _212
REMARK   82  A    between atoms: _212  and  _213
REMARK   83  A    between atoms: _212  and  _215
REMARK   84  A    between atoms: _215  and  _216
REMARK   85  A    between atoms: _219  and  _221
REMARK   86  A    between atoms: _221  and  _222
REMARK   87  A    between atoms: _224  and  _226
REMARK   88  A    between atoms: _226  and  _227
REMARK   89  A    between atoms: _226  and  _229
REMARK   90  A    between atoms: _229  and  _230
REMARK   91  A    between atoms: _233  and  _235
REMARK   92  A    between atoms: _235  and  _236
REMARK   93  A    between atoms: _235  and  _238
REMARK   94  A    between atoms: _238  and  _239
REMARK   95  A    between atoms: _241  and  _243
REMARK   96  A    between atoms: _243  and  _244
REMARK   97  A    between atoms: _243  and  _246
REMARK   98  A    between atoms: _246  and  _247
REMARK   99  A    between atoms: _247  and  _248
REMARK  100  A    between atoms: _250  and  _252
REMARK  101  A    between atoms: _252  and  _253
REMARK  102  A    between atoms: _252  and  _255
REMARK  103  A    between atoms: _255  and  _256
REMARK  104  A    between atoms: _259  and  _261
REMARK  105  A    between atoms: _261  and  _262
REMARK  106  A    between atoms: _261  and  _264
REMARK  107  A    between atoms: _264  and  _265
REMARK  108  A    between atoms: _268  and  _270
REMARK  109  A    between atoms: _270  and  _271
REMARK  110  A    between atoms: _270  and  _273
REMARK  111  A    between atoms: _273  and  _274
REMARK  112  A    between atoms: _277  and  _279
REMARK  113  A    between atoms: _279  and  _280
REMARK  114  A    between atoms: _279  and  _282
REMARK  115  A    between atoms: _282  and  _283
REMARK  116  A    between atoms: _285  and  _287
REMARK  117  A    between atoms: _287  and  _288
REMARK  118  A    between atoms: _290  and  _292
REMARK  119  A    between atoms: _292  and  _293
REMARK  120  A    between atoms: _292  and  _295
REMARK  121  A    between atoms: _295  and  _296
REMARK  122  A    between atoms: _298  and  _300
REMARK  123  A    between atoms: _300  and  _301
REMARK  124  A    between atoms: _300  and  _303
REMARK  125  A    between atoms: _303  and  _304
REMARK  126  A    between atoms: _307  and  _309
REMARK  127  A    between atoms: _309  and  _310
REMARK  128  A    between atoms: _309  and  _312
REMARK  129  A    between atoms: _312  and  _313
REMARK  130  A    between atoms: _313  and  _314
REMARK  131  A    between atoms: _314  and  _315
REMARK  132  A    between atoms: _315  and  _316
REMARK  133  A    between atoms: _320  and  _322
REMARK  134  A    between atoms: _322  and  _323
REMARK  135  A    between atoms: _322  and  _325
REMARK  136  A    between atoms: _325  and  _326
REMARK  137  A    between atoms: _326  and  _327
REMARK  138  A    between atoms: _330  and  _332
REMARK  139  A    between atoms: _332  and  _333
REMARK  140  A    between atoms: _332  and  _335
REMARK  141  A    between atoms: _335  and  _336
REMARK  142  A    between atoms: _342  and  _344
REMARK  143  A    between atoms: _344  and  _345
REMARK  144  A    between atoms: _344  and  _347
REMARK  145  A    between atoms: _347  and  _348
REMARK  146  A    between atoms: _354  and  _356
REMARK  147  A    between atoms: _356  and  _357
REMARK  148  A    between atoms: _356  and  _359
REMARK  149  A    between atoms: _362  and  _364
REMARK  150  A    between atoms: _364  and  _365
REMARK  151  A    between atoms: _364  and  _367
REMARK  152  A    between atoms: _367  and  _368
REMARK  153  A    between atoms: _371  and  _373
REMARK  154  A    between atoms: _373  and  _374
REMARK  155  A    between atoms: _373  and  _376
REMARK  156  A    between atoms: _376  and  _377
REMARK  157  A    between atoms: _380  and  _382
REMARK  158  A    between atoms: _382  and  _383
REMARK  159  A    between atoms: _386  and  _388
REMARK  160  A    between atoms: _388  and  _389
REMARK  161  A    between atoms: _391  and  _393
REMARK  162  A    between atoms: _393  and  _394
REMARK  163  A    between atoms: _393  and  _396
REMARK  164  A    between atoms: _399  and  _401
REMARK  165  A    between atoms: _401  and  _402
REMARK  166  A    between atoms: _401  and  _404
REMARK  167  A    between atoms: _404  and  _405
REMARK  168  A    between atoms: _411  and  _413
REMARK  169  A    between atoms: _413  and  _414
REMARK  170  A    between atoms: _413  and  _416
REMARK  171  A    between atoms: _416  and  _417
REMARK  172  A    between atoms: _420  and  _422
REMARK  173  A    between atoms: _422  and  _423
REMARK  174  A    between atoms: _422  and  _425
REMARK  175  A    between atoms: _425  and  _426
REMARK  176  A    between atoms: _429  and  _431
REMARK  177  A    between atoms: _431  and  _432
REMARK  178  A    between atoms: _431  and  _434
REMARK  179  A    between atoms: _434  and  _435
REMARK  180  A    between atoms: _435  and  _436
REMARK  181  A    between atoms: _439  and  _441
REMARK  182  A    between atoms: _441  and  _442
REMARK  183  A    between atoms: _441  and  _444
REMARK  184  A    between atoms: _444  and  _445
REMARK  185  A    between atoms: _447  and  _449
REMARK  186  A    between atoms: _449  and  _450
REMARK  187  A    between atoms: _449  and  _452
REMARK  188  A    between atoms: _452  and  _453
REMARK  189  A    between atoms: _456  and  _458
REMARK  190  A    between atoms: _458  and  _459
REMARK  191  A    between atoms: _458  and  _461
REMARK  192  A    between atoms: _461  and  _462
REMARK  193  A    between atoms: _462  and  _463
REMARK  194  A    between atoms: _465  and  _467
REMARK  195  A    between atoms: _467  and  _468
REMARK  196  A    between atoms: _467  and  _470
REMARK  197  A    between atoms: _470  and  _471
REMARK  198  A    between atoms: _476  and  _478
REMARK  199  A    between atoms: _478  and  _479
REMARK  200  A    between atoms: _478  and  _481
REMARK  201  A    between atoms: _481  and  _482
REMARK  202  A    between atoms: _487  and  _488
REMARK  203  A    between atoms: _490  and  _492
REMARK  204  A    between atoms: _492  and  _493
REMARK  205  A    between atoms: _492  and  _495
REMARK  206  A    between atoms: _495  and  _496
REMARK  207  A    between atoms: _499  and  _501
REMARK  208  A    between atoms: _501  and  _502
REMARK  209  A    between atoms: _501  and  _504
REMARK  210  A    between atoms: _504  and  _505
REMARK  211  A    between atoms: _505  and  _506
REMARK  212  A    between atoms: _506  and  _507
REMARK  213  A    between atoms: _507  and  _508
REMARK  214  A    between atoms: _512  and  _514
REMARK  215  A    between atoms: _514  and  _515
REMARK  216  A    between atoms: _517  and  _519
REMARK  217  A    between atoms: _519  and  _520
REMARK  218  A    between atoms: _519  and  _522
REMARK  219  A    between atoms: _522  and  _523
REMARK  220  A    between atoms: _528  and  _529
REMARK  221  A    between atoms: _531  and  _533
REMARK  222  A    between atoms: _533  and  _534
REMARK  223  A    between atoms: _536  and  _538
REMARK  224  A    between atoms: _538  and  _539
REMARK  225  A    between atoms: _538  and  _541
REMARK  226  A    between atoms: _541  and  _542
REMARK                            x       y       z     vdW  Elec       q    Type
REMARK                         _______ _______ _______ _____ _____    ______ ____
ROOT
ATOM      1  O   HOH     1      25.600  12.954  55.682  0.00  0.00    +0.000 OA
ENDROOT
TORSDOF 0
REMARK  Name = ../refined-set-2016/1syi/1syi_pocket.pdb
REMARK  226 active torsions:
REMARK  status: ('A' for Active; 'I' for Inactive)
REMARK    1  A    between atoms: _1  and  _3
REMARK    2  A    between atoms: _3  and  _4
REMARK    3  A    between atoms: _3  and  _6
REMARK    4  A    between atoms: _6  and  _7
REMARK    5  A    between atoms: _10  and  _12
REMARK    6  A    between atoms: _12  and  _13
REMARK    7  A    between atoms: _12  and  _15
REMARK    8  A    between atoms: _15  and  _16
REMARK    9  A    between atoms: _16  and  _17
REMARK   10  A    between atoms: _20  and  _22
REMARK   11  A    between atoms: _22  and  _23
REMARK   12  A    between atoms: _22  and  _25
REMARK   13  A    between atoms: _25  and  _26
REMARK   14  A    between atoms: _29  and  _30
REMARK   15  A    between atoms: _35  and  _37
REMARK   16  A    between atoms: _37  and  _38
REMARK   17  A    between atoms: _37  and  _40
REMARK   18  A    between atoms: _40  and  _41
REMARK   19  A    between atoms: _46  and  _47
REMARK   20  A    between atoms: _49  and  _51
REMARK   21  A    between atoms: _51  and  _52
REMARK   22  A    between atoms: _51  and  _54
REMARK   23  A    between atoms: _54  and  _55
REMARK   24  A    between atoms: _55  and  _56
REMARK   25  A    between atoms: _56  and  _57
REMARK   26  A    between atoms: _57  and  _58
REMARK   27  A    between atoms: _62  and  _64
REMARK   28  A    between atoms: _64  and  _65
REMARK   29  A    between atoms: _64  and  _67
REMARK   30  A    between atoms: _67  and  _68
REMARK   31  A    between atoms: _73  and  _74
REMARK   32  A    between atoms: _76  and  _78
REMARK   33  A    between atoms: _78  and  _79
REMARK   34  A    between atoms: _81  and  _83
REMARK   35  A    between atoms: _83  and  _84
REMARK   36  A    between atoms: _87  and  _89
REMARK   37  A    between atoms: _89  and  _90
REMARK   38  A    between atoms: _89  and  _92
REMARK   39  A    between atoms: _92  and  _93
REMARK   40  A    between atoms: _103  and  _105
REMARK   41  A    between atoms: _105  and  _106
REMARK   42  A    between atoms: _105  and  _108
REMARK   43  A    between atoms: _108  and  _109
REMARK   44  A    between atoms: _109  and  _110
REMARK   45  A    between atoms: _112  and  _114
REMARK   46  A    between atoms: _114  and  _115
REMARK   47  A    between atoms: _114  and  _117
REMARK   48  A    between atoms: _120  and  _122
REMARK   49  A    between atoms: _122  and  _123
REMARK   50  A    between atoms: _127  and  _128
REMARK   51  A    between atoms: _133  and  _135
REMARK   52  A    between atoms: _135  and  _136
REMARK   53  A    between atoms: _135  and  _138
REMARK   54  A    between atoms: _138  and  _139
REMARK   55  A    between atoms: _142  and  _144
REMARK   56  A    between atoms: _144  and  _145
REMARK   57  A    between atoms: _144  and  _147
REMARK   58  A    between atoms: _147  and  _148
REMARK   59  A    between atoms: _151  and  _153
REMARK   60  A    between atoms: _153  and  _154
REMARK   61  A    between atoms: _153  and  _156
REMARK   62  A    between atoms: _156  and  _157
REMARK   63  A    between atoms: _160  and  _162
REMARK   64  A    between atoms: _162  and  _163
REMARK   65  A    between atoms: _162  and  _165
REMARK   66  A    between atoms: _165  and  _166
REMARK   67  A    between atoms: _169  and  _171
REMARK   68  A    between atoms: _171  and  _172
REMARK   69  A    between atoms: _171  and  _174
REMARK   70  A    between atoms: _174  and  _175
REMARK   71  A    between atoms: _175  and  _176
REMARK   72  A    between atoms: _176  and  _177
REMARK   73  A    between atoms: _186  and  _188
REMARK   74  A    between atoms: _188  and  _189
REMARK   75  A    between atoms: _188  and  _191
REMARK   76  A    between atoms: _191  and  _192
REMARK   77  A    between atoms: _198  and  _200
REMARK   78  A    between atoms: _200  and  _201
REMARK   79  A    between atoms: _200  and  _203
REMARK   80  A    between atoms: _203  and  _204
REMARK   81  A    between atoms: _210  and  _212
REMARK   82  A    between atoms: _212  and  _213
REMARK   83  A    between atoms: _212  and  _215
REMARK   84  A    between atoms: _215  and  _216
REMARK   85  A    between atoms: _219  and  _221
REMARK   86  A    between atoms: _221  and  _222
REMARK   87  A    between atoms: _224  and  _226
REMARK   88  A    between atoms: _226  and  _227
REMARK   89  A    between atoms: _226  and  _229
REMARK   90  A    between atoms: _229  and  _230
REMARK   91  A    between atoms: _233  and  _235
REMARK   92  A    between atoms: _235  and  _236
REMARK   93  A    between atoms: _235  and  _238
REMARK   94  A    between atoms: _238  and  _239
REMARK   95  A    between atoms: _241  and  _243
REMARK   96  A    between atoms: _243  and  _244
REMARK   97  A    between atoms: _243  and  _246
REMARK   98  A    between atoms: _246  and  _247
REMARK   99  A    between atoms: _247  and  _248
REMARK  100  A    between atoms: _250  and  _252
REMARK  101  A    between atoms: _252  and  _253
REMARK  102  A    between atoms: _252  and  _255
REMARK  103  A    between atoms: _255  and  _256
REMARK  104  A    between atoms: _259  and  _261
REMARK  105  A    between atoms: _261  and  _262
REMARK  106  A    between atoms: _261  and  _264
REMARK  107  A    between atoms: _264  and  _265
REMARK  108  A    between atoms: _268  and  _270
REMARK  109  A    between atoms: _270  and  _271
REMARK  110  A    between atoms: _270  and  _273
REMARK  111  A    between atoms: _273  and  _274
REMARK  112  A    between atoms: _277  and  _279
REMARK  113  A    between atoms: _279  and  _280
REMARK  114  A    between atoms: _279  and  _282
REMARK  115  A    between atoms: _282  and  _283
REMARK  116  A    between atoms: _285  and  _287
REMARK  117  A    between atoms: _287  and  _288
REMARK  118  A    between atoms: _290  and  _292
REMARK  119  A    between atoms: _292  and  _293
REMARK  120  A    between atoms: _292  and  _295
REMARK  121  A    between atoms: _295  and  _296
REMARK  122  A    between atoms: _298  and  _300
REMARK  123  A    between atoms: _300  and  _301
REMARK  124  A    between atoms: _300  and  _303
REMARK  125  A    between atoms: _303  and  _304
REMARK  126  A    between atoms: _307  and  _309
REMARK  127  A    between atoms: _309  and  _310
REMARK  128  A    between atoms: _309  and  _312
REMARK  129  A    between atoms: _312  and  _313
REMARK  130  A    between atoms: _313  and  _314
REMARK  131  A    between atoms: _314  and  _315
REMARK  132  A    between atoms: _315  and  _316
REMARK  133  A    between atoms: _320  and  _322
REMARK  134  A    between atoms: _322  and  _323
REMARK  135  A    between atoms: _322  and  _325
REMARK  136  A    between atoms: _325  and  _326
REMARK  137  A    between atoms: _326  and  _327
REMARK  138  A    between atoms: _330  and  _332
REMARK  139  A    between atoms: _332  and  _333
REMARK  140  A    between atoms: _332  and  _335
REMARK  141  A    between atoms: _335  and  _336
REMARK  142  A    between atoms: _342  and  _344
REMARK  143  A    between atoms: _344  and  _345
REMARK  144  A    between atoms: _344  and  _347
REMARK  145  A    between atoms: _347  and  _348
REMARK  146  A    between atoms: _354  and  _356
REMARK  147  A    between atoms: _356  and  _357
REMARK  148  A    between atoms: _356  and  _359
REMARK  149  A    between atoms: _362  and  _364
REMARK  150  A    between atoms: _364  and  _365
REMARK  151  A    between atoms: _364  and  _367
REMARK  152  A    between atoms: _367  and  _368
REMARK  153  A    between atoms: _371  and  _373
REMARK  154  A    between atoms: _373  and  _374
REMARK  155  A    between atoms: _373  and  _376
REMARK  156  A    between atoms: _376  and  _377
REMARK  157  A    between atoms: _380  and  _382
REMARK  158  A    between atoms: _382  and  _383
REMARK  159  A    between atoms: _386  and  _388
REMARK  160  A    between atoms: _388  and  _389
REMARK  161  A    between atoms: _391  and  _393
REMARK  162  A    between atoms: _393  and  _394
REMARK  163  A    between atoms: _393  and  _396
REMARK  164  A    between atoms: _399  and  _401
REMARK  165  A    between atoms: _401  and  _402
REMARK  166  A    between atoms: _401  and  _404
REMARK  167  A    between atoms: _404  and  _405
REMARK  168  A    between atoms: _411  and  _413
REMARK  169  A    between atoms: _413  and  _414
REMARK  170  A    between atoms: _413  and  _416
REMARK  171  A    between atoms: _416  and  _417
REMARK  172  A    between atoms: _420  and  _422
REMARK  173  A    between atoms: _422  and  _423
REMARK  174  A    between atoms: _422  and  _425
REMARK  175  A    between atoms: _425  and  _426
REMARK  176  A    between atoms: _429  and  _431
REMARK  177  A    between atoms: _431  and  _432
REMARK  178  A    between atoms: _431  and  _434
REMARK  179  A    between atoms: _434  and  _435
REMARK  180  A    between atoms: _435  and  _436
REMARK  181  A    between atoms: _439  and  _441
REMARK  182  A    between atoms: _441  and  _442
REMARK  183  A    between atoms: _441  and  _444
REMARK  184  A    between atoms: _444  and  _445
REMARK  185  A    between atoms: _447  and  _449
REMARK  186  A    between atoms: _449  and  _450
REMARK  187  A    between atoms: _449  and  _452
REMARK  188  A    between atoms: _452  and  _453
REMARK  189  A    between atoms: _456  and  _458
REMARK  190  A    between atoms: _458  and  _459
REMARK  191  A    between atoms: _458  and  _461
REMARK  192  A    between atoms: _461  and  _462
REMARK  193  A    between atoms: _462  and  _463
REMARK  194  A    between atoms: _465  and  _467
REMARK  195  A    between atoms: _467  and  _468
REMARK  196  A    between atoms: _467  and  _470
REMARK  197  A    between atoms: _470  and  _471
REMARK  198  A    between atoms: _476  and  _478
REMARK  199  A    between atoms: _478  and  _479
REMARK  200  A    between atoms: _478  and  _481
REMARK  201  A    between atoms: _481  and  _482
REMARK  202  A    between atoms: _487  and  _488
REMARK  203  A    between atoms: _490  and  _492
REMARK  204  A    between atoms: _492  and  _493
REMARK  205  A    between atoms: _492  and  _495
REMARK  206  A    between atoms: _495  and  _496
REMARK  207  A    between atoms: _499  and  _501
REMARK  208  A    between atoms: _501  and  _502
REMARK  209  A    between atoms: _501  and  _504
REMARK  210  A    between atoms: _504  and  _505
REMARK  211  A    between atoms: _505  and  _506
REMARK  212  A    between atoms: _506  and  _507
REMARK  213  A    between atoms: _507  and  _508
REMARK  214  A    between atoms: _512  and  _514
REMARK  215  A    between atoms: _514  and  _515
REMARK  216  A    between atoms: _517  and  _519
REMARK  217  A    between atoms: _519  and  _520
REMARK  218  A    between atoms: _519  and  _522
REMARK  219  A    between atoms: _522  and  _523
REMARK  220  A    between atoms: _528  and  _529
REMARK  221  A    between atoms: _531  and  _533
REMARK  222  A    between atoms: _533  and  _534
REMARK  223  A    between atoms: _536  and  _538
REMARK  224  A    between atoms: _538  and  _539
REMARK  225  A    between atoms: _538  and  _541
REMARK  226  A    between atoms: _541  and  _542
REMARK                            x       y       z     vdW  Elec       q    Type
REMARK                         _______ _______ _______ _____ _____    ______ ____
ROOT
ATOM      1  O   HOH     1      21.892  17.571  52.791  0.00  0.00    +0.000 OA
ENDROOT
TORSDOF 0
REMARK  Name = ../refined-set-2016/1syi/1syi_pocket.pdb
REMARK  226 active torsions:
REMARK  status: ('A' for Active; 'I' for Inactive)
REMARK    1  A    between atoms: _1  and  _3
REMARK    2  A    between atoms: _3  and  _4
REMARK    3  A    between atoms: _3  and  _6
REMARK    4  A    between atoms: _6  and  _7
REMARK    5  A    between atoms: _10  and  _12
REMARK    6  A    between atoms: _12  and  _13
REMARK    7  A    between atoms: _12  and  _15
REMARK    8  A    between atoms: _15  and  _16
REMARK    9  A    between atoms: _16  and  _17
REMARK   10  A    between atoms: _20  and  _22
REMARK   11  A    between atoms: _22  and  _23
REMARK   12  A    between atoms: _22  and  _25
REMARK   13  A    between atoms: _25  and  _26
REMARK   14  A    between atoms: _29  and  _30
REMARK   15  A    between atoms: _35  and  _37
REMARK   16  A    between atoms: _37  and  _38
REMARK   17  A    between atoms: _37  and  _40
REMARK   18  A    between atoms: _40  and  _41
REMARK   19  A    between atoms: _46  and  _47
REMARK   20  A    between atoms: _49  and  _51
REMARK   21  A    between atoms: _51  and  _52
REMARK   22  A    between atoms: _51  and  _54
REMARK   23  A    between atoms: _54  and  _55
REMARK   24  A    between atoms: _55  and  _56
REMARK   25  A    between atoms: _56  and  _57
REMARK   26  A    between atoms: _57  and  _58
REMARK   27  A    between atoms: _62  and  _64
REMARK   28  A    between atoms: _64  and  _65
REMARK   29  A    between atoms: _64  and  _67
REMARK   30  A    between atoms: _67  and  _68
REMARK   31  A    between atoms: _73  and  _74
REMARK   32  A    between atoms: _76  and  _78
REMARK   33  A    between atoms: _78  and  _79
REMARK   34  A    between atoms: _81  and  _83
REMARK   35  A    between atoms: _83  and  _84
REMARK   36  A    between atoms: _87  and  _89
REMARK   37  A    between atoms: _89  and  _90
REMARK   38  A    between atoms: _89  and  _92
REMARK   39  A    between atoms: _92  and  _93
REMARK   40  A    between atoms: _103  and  _105
REMARK   41  A    between atoms: _105  and  _106
REMARK   42  A    between atoms: _105  and  _108
REMARK   43  A    between atoms: _108  and  _109
REMARK   44  A    between atoms: _109  and  _110
REMARK   45  A    between atoms: _112  and  _114
REMARK   46  A    between atoms: _114  and  _115
REMARK   47  A    between atoms: _114  and  _117
REMARK   48  A    between atoms: _120  and  _122
REMARK   49  A    between atoms: _122  and  _123
REMARK   50  A    between atoms: _127  and  _128
REMARK   51  A    between atoms: _133  and  _135
REMARK   52  A    between atoms: _135  and  _136
REMARK   53  A    between atoms: _135  and  _138
REMARK   54  A    between atoms: _138  and  _139
REMARK   55  A    between atoms: _142  and  _144
REMARK   56  A    between atoms: _144  and  _145
REMARK   57  A    between atoms: _144  and  _147
REMARK   58  A    between atoms: _147  and  _148
REMARK   59  A    between atoms: _151  and  _153
REMARK   60  A    between atoms: _153  and  _154
REMARK   61  A    between atoms: _153  and  _156
REMARK   62  A    between atoms: _156  and  _157
REMARK   63  A    between atoms: _160  and  _162
REMARK   64  A    between atoms: _162  and  _163
REMARK   65  A    between atoms: _162  and  _165
REMARK   66  A    between atoms: _165  and  _166
REMARK   67  A    between atoms: _169  and  _171
REMARK   68  A    between atoms: _171  and  _172
REMARK   69  A    between atoms: _171  and  _174
REMARK   70  A    between atoms: _174  and  _175
REMARK   71  A    between atoms: _175  and  _176
REMARK   72  A    between atoms: _176  and  _177
REMARK   73  A    between atoms: _186  and  _188
REMARK   74  A    between atoms: _188  and  _189
REMARK   75  A    between atoms: _188  and  _191
REMARK   76  A    between atoms: _191  and  _192
REMARK   77  A    between atoms: _198  and  _200
REMARK   78  A    between atoms: _200  and  _201
REMARK   79  A    between atoms: _200  and  _203
REMARK   80  A    between atoms: _203  and  _204
REMARK   81  A    between atoms: _210  and  _212
REMARK   82  A    between atoms: _212  and  _213
REMARK   83  A    between atoms: _212  and  _215
REMARK   84  A    between atoms: _215  and  _216
REMARK   85  A    between atoms: _219  and  _221
REMARK   86  A    between atoms: _221  and  _222
REMARK   87  A    between atoms: _224  and  _226
REMARK   88  A    between atoms: _226  and  _227
REMARK   89  A    between atoms: _226  and  _229
REMARK   90  A    between atoms: _229  and  _230
REMARK   91  A    between atoms: _233  and  _235
REMARK   92  A    between atoms: _235  and  _236
REMARK   93  A    between atoms: _235  and  _238
REMARK   94  A    between atoms: _238  and  _239
REMARK   95  A    between atoms: _241  and  _243
REMARK   96  A    between atoms: _243  and  _244
REMARK   97  A    between atoms: _243  and  _246
REMARK   98  A    between atoms: _246  and  _247
REMARK   99  A    between atoms: _247  and  _248
REMARK  100  A    between atoms: _250  and  _252
REMARK  101  A    between atoms: _252  and  _253
REMARK  102  A    between atoms: _252  and  _255
REMARK  103  A    between atoms: _255  and  _256
REMARK  104  A    between atoms: _259  and  _261
REMARK  105  A    between atoms: _261  and  _262
REMARK  106  A    between atoms: _261  and  _264
REMARK  107  A    between atoms: _264  and  _265
REMARK  108  A    between atoms: _268  and  _270
REMARK  109  A    between atoms: _270  and  _271
REMARK  110  A    between atoms: _270  and  _273
REMARK  111  A    between atoms: _273  and  _274
REMARK  112  A    between atoms: _277  and  _279
REMARK  113  A    between atoms: _279  and  _280
REMARK  114  A    between atoms: _279  and  _282
REMARK  115  A    between atoms: _282  and  _283
REMARK  116  A    between atoms: _285  and  _287
REMARK  117  A    between atoms: _287  and  _288
REMARK  118  A    between atoms: _290  and  _292
REMARK  119  A    between atoms: _292  and  _293
REMARK  120  A    between atoms: _292  and  _295
REMARK  121  A    between atoms: _295  and  _296
REMARK  122  A    between atoms: _298  and  _300
REMARK  123  A    between atoms: _300  and  _301
REMARK  124  A    between atoms: _300  and  _303
REMARK  125  A    between atoms: _303  and  _304
REMARK  126  A    between atoms: _307  and  _309
REMARK  127  A    between atoms: _309  and  _310
REMARK  128  A    between atoms: _309  and  _312
REMARK  129  A    between atoms: _312  and  _313
REMARK  130  A    between atoms: _313  and  _314
REMARK  131  A    between atoms: _314  and  _315
REMARK  132  A    between atoms: _315  and  _316
REMARK  133  A    between atoms: _320  and  _322
REMARK  134  A    between atoms: _322  and  _323
REMARK  135  A    between atoms: _322  and  _325
REMARK  136  A    between atoms: _325  and  _326
REMARK  137  A    between atoms: _326  and  _327
REMARK  138  A    between atoms: _330  and  _332
REMARK  139  A    between atoms: _332  and  _333
REMARK  140  A    between atoms: _332  and  _335
REMARK  141  A    between atoms: _335  and  _336
REMARK  142  A    between atoms: _342  and  _344
REMARK  143  A    between atoms: _344  and  _345
REMARK  144  A    between atoms: _344  and  _347
REMARK  145  A    between atoms: _347  and  _348
REMARK  146  A    between atoms: _354  and  _356
REMARK  147  A    between atoms: _356  and  _357
REMARK  148  A    between atoms: _356  and  _359
REMARK  149  A    between atoms: _362  and  _364
REMARK  150  A    between atoms: _364  and  _365
REMARK  151  A    between atoms: _364  and  _367
REMARK  152  A    between atoms: _367  and  _368
REMARK  153  A    between atoms: _371  and  _373
REMARK  154  A    between atoms: _373  and  _374
REMARK  155  A    between atoms: _373  and  _376
REMARK  156  A    between atoms: _376  and  _377
REMARK  157  A    between atoms: _380  and  _382
REMARK  158  A    between atoms: _382  and  _383
REMARK  159  A    between atoms: _386  and  _388
REMARK  160  A    between atoms: _388  and  _389
REMARK  161  A    between atoms: _391  and  _393
REMARK  162  A    between atoms: _393  and  _394
REMARK  163  A    between atoms: _393  and  _396
REMARK  164  A    between atoms: _399  and  _401
REMARK  165  A    between atoms: _401  and  _402
REMARK  166  A    between atoms: _401  and  _404
REMARK  167  A    between atoms: _404  and  _405
REMARK  168  A    between atoms: _411  and  _413
REMARK  169  A    between atoms: _413  and  _414
REMARK  170  A    between atoms: _413  and  _416
REMARK  171  A    between atoms: _416  and  _417
REMARK  172  A    between atoms: _420  and  _422
REMARK  173  A    between atoms: _422  and  _423
REMARK  174  A    between atoms: _422  and  _425
REMARK  175  A    between atoms: _425  and  _426
REMARK  176  A    between atoms: _429  and  _431
REMARK  177  A    between atoms: _431  and  _432
REMARK  178  A    between atoms: _431  and  _434
REMARK  179  A    between atoms: _434  and  _435
REMARK  180  A    between atoms: _435  and  _436
REMARK  181  A    between atoms: _439  and  _441
REMARK  182  A    between atoms: _441  and  _442
REMARK  183  A    between atoms: _441  and  _444
REMARK  184  A    between atoms: _444  and  _445
REMARK  185  A    between atoms: _447  and  _449
REMARK  186  A    between atoms: _449  and  _450
REMARK  187  A    between atoms: _449  and  _452
REMARK  188  A    between atoms: _452  and  _453
REMARK  189  A    between atoms: _456  and  _458
REMARK  190  A    between atoms: _458  and  _459
REMARK  191  A    between atoms: _458  and  _461
REMARK  192  A    between atoms: _461  and  _462
REMARK  193  A    between atoms: _462  and  _463
REMARK  194  A    between atoms: _465  and  _467
REMARK  195  A    between atoms: _467  and  _468
REMARK  196  A    between atoms: _467  and  _470
REMARK  197  A    between atoms: _470  and  _471
REMARK  198  A    between atoms: _476  and  _478
REMARK  199  A    between atoms: _478  and  _479
REMARK  200  A    between atoms: _478  and  _481
REMARK  201  A    between atoms: _481  and  _482
REMARK  202  A    between atoms: _487  and  _488
REMARK  203  A    between atoms: _490  and  _492
REMARK  204  A    between atoms: _492  and  _493
REMARK  205  A    between atoms: _492  and  _495
REMARK  206  A    between atoms: _495  and  _496
REMARK  207  A    between atoms: _499  and  _501
REMARK  208  A    between atoms: _501  and  _502
REMARK  209  A    between atoms: _501  and  _504
REMARK  210  A    between atoms: _504  and  _505
REMARK  211  A    between atoms: _505  and  _506
REMARK  212  A    between atoms: _506  and  _507
REMARK  213  A    between atoms: _507  and  _508
REMARK  214  A    between atoms: _512  and  _514
REMARK  215  A    between atoms: _514  and  _515
REMARK  216  A    between atoms: _517  and  _519
REMARK  217  A    between atoms: _519  and  _520
REMARK  218  A    between atoms: _519  and  _522
REMARK  219  A    between atoms: _522  and  _523
REMARK  220  A    between atoms: _528  and  _529
REMARK  221  A    between atoms: _531  and  _533
REMARK  222  A    between atoms: _533  and  _534
REMARK  223  A    between atoms: _536  and  _538
REMARK  224  A    between atoms: _538  and  _539
REMARK  225  A    between atoms: _538  and  _541
REMARK  226  A    between atoms: _541  and  _542
REMARK                            x       y       z     vdW  Elec       q    Type
REMARK                         _______ _______ _______ _____ _____    ______ ____
ROOT
ATOM      1  O   HOH     1      14.768   9.611  50.579  0.00  0.00    +0.000 OA
ENDROOT
TORSDOF 0
REMARK  Name = ../refined-set-2016/1syi/1syi_pocket.pdb
REMARK  226 active torsions:
REMARK  status: ('A' for Active; 'I' for Inactive)
REMARK    1  A    between atoms: _1  and  _3
REMARK    2  A    between atoms: _3  and  _4
REMARK    3  A    between atoms: _3  and  _6
REMARK    4  A    between atoms: _6  and  _7
REMARK    5  A    between atoms: _10  and  _12
REMARK    6  A    between atoms: _12  and  _13
REMARK    7  A    between atoms: _12  and  _15
REMARK    8  A    between atoms: _15  and  _16
REMARK    9  A    between atoms: _16  and  _17
REMARK   10  A    between atoms: _20  and  _22
REMARK   11  A    between atoms: _22  and  _23
REMARK   12  A    between atoms: _22  and  _25
REMARK   13  A    between atoms: _25  and  _26
REMARK   14  A    between atoms: _29  and  _30
REMARK   15  A    between atoms: _35  and  _37
REMARK   16  A    between atoms: _37  and  _38
REMARK   17  A    between atoms: _37  and  _40
REMARK   18  A    between atoms: _40  and  _41
REMARK   19  A    between atoms: _46  and  _47
REMARK   20  A    between atoms: _49  and  _51
REMARK   21  A    between atoms: _51  and  _52
REMARK   22  A    between atoms: _51  and  _54
REMARK   23  A    between atoms: _54  and  _55
REMARK   24  A    between atoms: _55  and  _56
REMARK   25  A    between atoms: _56  and  _57
REMARK   26  A    between atoms: _57  and  _58
REMARK   27  A    between atoms: _62  and  _64
REMARK   28  A    between atoms: _64  and  _65
REMARK   29  A    between atoms: _64  and  _67
REMARK   30  A    between atoms: _67  and  _68
REMARK   31  A    between atoms: _73  and  _74
REMARK   32  A    between atoms: _76  and  _78
REMARK   33  A    between atoms: _78  and  _79
REMARK   34  A    between atoms: _81  and  _83
REMARK   35  A    between atoms: _83  and  _84
REMARK   36  A    between atoms: _87  and  _89
REMARK   37  A    between atoms: _89  and  _90
REMARK   38  A    between atoms: _89  and  _92
REMARK   39  A    between atoms: _92  and  _93
REMARK   40  A    between atoms: _103  and  _105
REMARK   41  A    between atoms: _105  and  _106
REMARK   42  A    between atoms: _105  and  _108
REMARK   43  A    between atoms: _108  and  _109
REMARK   44  A    between atoms: _109  and  _110
REMARK   45  A    between atoms: _112  and  _114
REMARK   46  A    between atoms: _114  and  _115
REMARK   47  A    between atoms: _114  and  _117
REMARK   48  A    between atoms: _120  and  _122
REMARK   49  A    between atoms: _122  and  _123
REMARK   50  A    between atoms: _127  and  _128
REMARK   51  A    between atoms: _133  and  _135
REMARK   52  A    between atoms: _135  and  _136
REMARK   53  A    between atoms: _135  and  _138
REMARK   54  A    between atoms: _138  and  _139
REMARK   55  A    between atoms: _142  and  _144
REMARK   56  A    between atoms: _144  and  _145
REMARK   57  A    between atoms: _144  and  _147
REMARK   58  A    between atoms: _147  and  _148
REMARK   59  A    between atoms: _151  and  _153
REMARK   60  A    between atoms: _153  and  _154
REMARK   61  A    between atoms: _153  and  _156
REMARK   62  A    between atoms: _156  and  _157
REMARK   63  A    between atoms: _160  and  _162
REMARK   64  A    between atoms: _162  and  _163
REMARK   65  A    between atoms: _162  and  _165
REMARK   66  A    between atoms: _165  and  _166
REMARK   67  A    between atoms: _169  and  _171
REMARK   68  A    between atoms: _171  and  _172
REMARK   69  A    between atoms: _171  and  _174
REMARK   70  A    between atoms: _174  and  _175
REMARK   71  A    between atoms: _175  and  _176
REMARK   72  A    between atoms: _176  and  _177
REMARK   73  A    between atoms: _186  and  _188
REMARK   74  A    between atoms: _188  and  _189
REMARK   75  A    between atoms: _188  and  _191
REMARK   76  A    between atoms: _191  and  _192
REMARK   77  A    between atoms: _198  and  _200
REMARK   78  A    between atoms: _200  and  _201
REMARK   79  A    between atoms: _200  and  _203
REMARK   80  A    between atoms: _203  and  _204
REMARK   81  A    between atoms: _210  and  _212
REMARK   82  A    between atoms: _212  and  _213
REMARK   83  A    between atoms: _212  and  _215
REMARK   84  A    between atoms: _215  and  _216
REMARK   85  A    between atoms: _219  and  _221
REMARK   86  A    between atoms: _221  and  _222
REMARK   87  A    between atoms: _224  and  _226
REMARK   88  A    between atoms: _226  and  _227
REMARK   89  A    between atoms: _226  and  _229
REMARK   90  A    between atoms: _229  and  _230
REMARK   91  A    between atoms: _233  and  _235
REMARK   92  A    between atoms: _235  and  _236
REMARK   93  A    between atoms: _235  and  _238
REMARK   94  A    between atoms: _238  and  _239
REMARK   95  A    between atoms: _241  and  _243
REMARK   96  A    between atoms: _243  and  _244
REMARK   97  A    between atoms: _243  and  _246
REMARK   98  A    between atoms: _246  and  _247
REMARK   99  A    between atoms: _247  and  _248
REMARK  100  A    between atoms: _250  and  _252
REMARK  101  A    between atoms: _252  and  _253
REMARK  102  A    between atoms: _252  and  _255
REMARK  103  A    between atoms: _255  and  _256
REMARK  104  A    between atoms: _259  and  _261
REMARK  105  A    between atoms: _261  and  _262
REMARK  106  A    between atoms: _261  and  _264
REMARK  107  A    between atoms: _264  and  _265
REMARK  108  A    between atoms: _268  and  _270
REMARK  109  A    between atoms: _270  and  _271
REMARK  110  A    between atoms: _270  and  _273
REMARK  111  A    between atoms: _273  and  _274
REMARK  112  A    between atoms: _277  and  _279
REMARK  113  A    between atoms: _279  and  _280
REMARK  114  A    between atoms: _279  and  _282
REMARK  115  A    between atoms: _282  and  _283
REMARK  116  A    between atoms: _285  and  _287
REMARK  117  A    between atoms: _287  and  _288
REMARK  118  A    between atoms: _290  and  _292
REMARK  119  A    between atoms: _292  and  _293
REMARK  120  A    between atoms: _292  and  _295
REMARK  121  A    between atoms: _295  and  _296
REMARK  122  A    between atoms: _298  and  _300
REMARK  123  A    between atoms: _300  and  _301
REMARK  124  A    between atoms: _300  and  _303
REMARK  125  A    between atoms: _303  and  _304
REMARK  126  A    between atoms: _307  and  _309
REMARK  127  A    between atoms: _309  and  _310
REMARK  128  A    between atoms: _309  and  _312
REMARK  129  A    between atoms: _312  and  _313
REMARK  130  A    between atoms: _313  and  _314
REMARK  131  A    between atoms: _314  and  _315
REMARK  132  A    between atoms: _315  and  _316
REMARK  133  A    between atoms: _320  and  _322
REMARK  134  A    between atoms: _322  and  _323
REMARK  135  A    between atoms: _322  and  _325
REMARK  136  A    between atoms: _325  and  _326
REMARK  137  A    between atoms: _326  and  _327
REMARK  138  A    between atoms: _330  and  _332
REMARK  139  A    between atoms: _332  and  _333
REMARK  140  A    between atoms: _332  and  _335
REMARK  141  A    between atoms: _335  and  _336
REMARK  142  A    between atoms: _342  and  _344
REMARK  143  A    between atoms: _344  and  _345
REMARK  144  A    between atoms: _344  and  _347
REMARK  145  A    between atoms: _347  and  _348
REMARK  146  A    between atoms: _354  and  _356
REMARK  147  A    between atoms: _356  and  _357
REMARK  148  A    between atoms: _356  and  _359
REMARK  149  A    between atoms: _362  and  _364
REMARK  150  A    between atoms: _364  and  _365
REMARK  151  A    between atoms: _364  and  _367
REMARK  152  A    between atoms: _367  and  _368
REMARK  153  A    between atoms: _371  and  _373
REMARK  154  A    between atoms: _373  and  _374
REMARK  155  A    between atoms: _373  and  _376
REMARK  156  A    between atoms: _376  and  _377
REMARK  157  A    between atoms: _380  and  _382
REMARK  158  A    between atoms: _382  and  _383
REMARK  159  A    between atoms: _386  and  _388
REMARK  160  A    between atoms: _388  and  _389
REMARK  161  A    between atoms: _391  and  _393
REMARK  162  A    between atoms: _393  and  _394
REMARK  163  A    between atoms: _393  and  _396
REMARK  164  A    between atoms: _399  and  _401
REMARK  165  A    between atoms: _401  and  _402
REMARK  166  A    between atoms: _401  and  _404
REMARK  167  A    between atoms: _404  and  _405
REMARK  168  A    between atoms: _411  and  _413
REMARK  169  A    between atoms: _413  and  _414
REMARK  170  A    between atoms: _413  and  _416
REMARK  171  A    between atoms: _416  and  _417
REMARK  172  A    between atoms: _420  and  _422
REMARK  173  A    between atoms: _422  and  _423
REMARK  174  A    between atoms: _422  and  _425
REMARK  175  A    between atoms: _425  and  _426
REMARK  176  A    between atoms: _429  and  _431
REMARK  177  A    between atoms: _431  and  _432
REMARK  178  A    between atoms: _431  and  _434
REMARK  179  A    between atoms: _434  and  _435
REMARK  180  A    between atoms: _435  and  _436
REMARK  181  A    between atoms: _439  and  _441
REMARK  182  A    between atoms: _441  and  _442
REMARK  183  A    between atoms: _441  and  _444
REMARK  184  A    between atoms: _444  and  _445
REMARK  185  A    between atoms: _447  and  _449
REMARK  186  A    between atoms: _449  and  _450
REMARK  187  A    between atoms: _449  and  _452
REMARK  188  A    between atoms: _452  and  _453
REMARK  189  A    between atoms: _456  and  _458
REMARK  190  A    between atoms: _458  and  _459
REMARK  191  A    between atoms: _458  and  _461
REMARK  192  A    between atoms: _461  and  _462
REMARK  193  A    between atoms: _462  and  _463
REMARK  194  A    between atoms: _465  and  _467
REMARK  195  A    between atoms: _467  and  _468
REMARK  196  A    between atoms: _467  and  _470
REMARK  197  A    between atoms: _470  and  _471
REMARK  198  A    between atoms: _476  and  _478
REMARK  199  A    between atoms: _478  and  _479
REMARK  200  A    between atoms: _478  and  _481
REMARK  201  A    between atoms: _481  and  _482
REMARK  202  A    between atoms: _487  and  _488
REMARK  203  A    between atoms: _490  and  _492
REMARK  204  A    between atoms: _492  and  _493
REMARK  205  A    between atoms: _492  and  _495
REMARK  206  A    between atoms: _495  and  _496
REMARK  207  A    between atoms: _499  and  _501
REMARK  208  A    between atoms: _501  and  _502
REMARK  209  A    between atoms: _501  and  _504
REMARK  210  A    between atoms: _504  and  _505
REMARK  211  A    between atoms: _505  and  _506
REMARK  212  A    between atoms: _506  and  _507
REMARK  213  A    between atoms: _507  and  _508
REMARK  214  A    between atoms: _512  and  _514
REMARK  215  A    between atoms: _514  and  _515
REMARK  216  A    between atoms: _517  and  _519
REMARK  217  A    between atoms: _519  and  _520
REMARK  218  A    between atoms: _519  and  _522
REMARK  219  A    between atoms: _522  and  _523
REMARK  220  A    between atoms: _528  and  _529
REMARK  221  A    between atoms: _531  and  _533
REMARK  222  A    between atoms: _533  and  _534
REMARK  223  A    between atoms: _536  and  _538
REMARK  224  A    between atoms: _538  and  _539
REMARK  225  A    between atoms: _538  and  _541
REMARK  226  A    between atoms: _541  and  _542
REMARK                            x       y       z     vdW  Elec       q    Type
REMARK                         _______ _______ _______ _____ _____    ______ ____
ROOT
ATOM      1  O   HOH     1      26.649  21.733  57.536  0.00  0.00    +0.000 OA
ENDROOT
TORSDOF 0
REMARK  Name = ../refined-set-2016/1syi/1syi_pocket.pdb
REMARK  226 active torsions:
REMARK  status: ('A' for Active; 'I' for Inactive)
REMARK    1  A    between atoms: _1  and  _3
REMARK    2  A    between atoms: _3  and  _4
REMARK    3  A    between atoms: _3  and  _6
REMARK    4  A    between atoms: _6  and  _7
REMARK    5  A    between atoms: _10  and  _12
REMARK    6  A    between atoms: _12  and  _13
REMARK    7  A    between atoms: _12  and  _15
REMARK    8  A    between atoms: _15  and  _16
REMARK    9  A    between atoms: _16  and  _17
REMARK   10  A    between atoms: _20  and  _22
REMARK   11  A    between atoms: _22  and  _23
REMARK   12  A    between atoms: _22  and  _25
REMARK   13  A    between atoms: _25  and  _26
REMARK   14  A    between atoms: _29  and  _30
REMARK   15  A    between atoms: _35  and  _37
REMARK   16  A    between atoms: _37  and  _38
REMARK   17  A    between atoms: _37  and  _40
REMARK   18  A    between atoms: _40  and  _41
REMARK   19  A    between atoms: _46  and  _47
REMARK   20  A    between atoms: _49  and  _51
REMARK   21  A    between atoms: _51  and  _52
REMARK   22  A    between atoms: _51  and  _54
REMARK   23  A    between atoms: _54  and  _55
REMARK   24  A    between atoms: _55  and  _56
REMARK   25  A    between atoms: _56  and  _57
REMARK   26  A    between atoms: _57  and  _58
REMARK   27  A    between atoms: _62  and  _64
REMARK   28  A    between atoms: _64  and  _65
REMARK   29  A    between atoms: _64  and  _67
REMARK   30  A    between atoms: _67  and  _68
REMARK   31  A    between atoms: _73  and  _74
REMARK   32  A    between atoms: _76  and  _78
REMARK   33  A    between atoms: _78  and  _79
REMARK   34  A    between atoms: _81  and  _83
REMARK   35  A    between atoms: _83  and  _84
REMARK   36  A    between atoms: _87  and  _89
REMARK   37  A    between atoms: _89  and  _90
REMARK   38  A    between atoms: _89  and  _92
REMARK   39  A    between atoms: _92  and  _93
REMARK   40  A    between atoms: _103  and  _105
REMARK   41  A    between atoms: _105  and  _106
REMARK   42  A    between atoms: _105  and  _108
REMARK   43  A    between atoms: _108  and  _109
REMARK   44  A    between atoms: _109  and  _110
REMARK   45  A    between atoms: _112  and  _114
REMARK   46  A    between atoms: _114  and  _115
REMARK   47  A    between atoms: _114  and  _117
REMARK   48  A    between atoms: _120  and  _122
REMARK   49  A    between atoms: _122  and  _123
REMARK   50  A    between atoms: _127  and  _128
REMARK   51  A    between atoms: _133  and  _135
REMARK   52  A    between atoms: _135  and  _136
REMARK   53  A    between atoms: _135  and  _138
REMARK   54  A    between atoms: _138  and  _139
REMARK   55  A    between atoms: _142  and  _144
REMARK   56  A    between atoms: _144  and  _145
REMARK   57  A    between atoms: _144  and  _147
REMARK   58  A    between atoms: _147  and  _148
REMARK   59  A    between atoms: _151  and  _153
REMARK   60  A    between atoms: _153  and  _154
REMARK   61  A    between atoms: _153  and  _156
REMARK   62  A    between atoms: _156  and  _157
REMARK   63  A    between atoms: _160  and  _162
REMARK   64  A    between atoms: _162  and  _163
REMARK   65  A    between atoms: _162  and  _165
REMARK   66  A    between atoms: _165  and  _166
REMARK   67  A    between atoms: _169  and  _171
REMARK   68  A    between atoms: _171  and  _172
REMARK   69  A    between atoms: _171  and  _174
REMARK   70  A    between atoms: _174  and  _175
REMARK   71  A    between atoms: _175  and  _176
REMARK   72  A    between atoms: _176  and  _177
REMARK   73  A    between atoms: _186  and  _188
REMARK   74  A    between atoms: _188  and  _189
REMARK   75  A    between atoms: _188  and  _191
REMARK   76  A    between atoms: _191  and  _192
REMARK   77  A    between atoms: _198  and  _200
REMARK   78  A    between atoms: _200  and  _201
REMARK   79  A    between atoms: _200  and  _203
REMARK   80  A    between atoms: _203  and  _204
REMARK   81  A    between atoms: _210  and  _212
REMARK   82  A    between atoms: _212  and  _213
REMARK   83  A    between atoms: _212  and  _215
REMARK   84  A    between atoms: _215  and  _216
REMARK   85  A    between atoms: _219  and  _221
REMARK   86  A    between atoms: _221  and  _222
REMARK   87  A    between atoms: _224  and  _226
REMARK   88  A    between atoms: _226  and  _227
REMARK   89  A    between atoms: _226  and  _229
REMARK   90  A    between atoms: _229  and  _230
REMARK   91  A    between atoms: _233  and  _235
REMARK   92  A    between atoms: _235  and  _236
REMARK   93  A    between atoms: _235  and  _238
REMARK   94  A    between atoms: _238  and  _239
REMARK   95  A    between atoms: _241  and  _243
REMARK   96  A    between atoms: _243  and  _244
REMARK   97  A    between atoms: _243  and  _246
REMARK   98  A    between atoms: _246  and  _247
REMARK   99  A    between atoms: _247  and  _248
REMARK  100  A    between atoms: _250  and  _252
REMARK  101  A    between atoms: _252  and  _253
REMARK  102  A    between atoms: _252  and  _255
REMARK  103  A    between atoms: _255  and  _256
REMARK  104  A    between atoms: _259  and  _261
REMARK  105  A    between atoms: _261  and  _262
REMARK  106  A    between atoms: _261  and  _264
REMARK  107  A    between atoms: _264  and  _265
REMARK  108  A    between atoms: _268  and  _270
REMARK  109  A    between atoms: _270  and  _271
REMARK  110  A    between atoms: _270  and  _273
REMARK  111  A    between atoms: _273  and  _274
REMARK  112  A    between atoms: _277  and  _279
REMARK  113  A    between atoms: _279  and  _280
REMARK  114  A    between atoms: _279  and  _282
REMARK  115  A    between atoms: _282  and  _283
REMARK  116  A    between atoms: _285  and  _287
REMARK  117  A    between atoms: _287  and  _288
REMARK  118  A    between atoms: _290  and  _292
REMARK  119  A    between atoms: _292  and  _293
REMARK  120  A    between atoms: _292  and  _295
REMARK  121  A    between atoms: _295  and  _296
REMARK  122  A    between atoms: _298  and  _300
REMARK  123  A    between atoms: _300  and  _301
REMARK  124  A    between atoms: _300  and  _303
REMARK  125  A    between atoms: _303  and  _304
REMARK  126  A    between atoms: _307  and  _309
REMARK  127  A    between atoms: _309  and  _310
REMARK  128  A    between atoms: _309  and  _312
REMARK  129  A    between atoms: _312  and  _313
REMARK  130  A    between atoms: _313  and  _314
REMARK  131  A    between atoms: _314  and  _315
REMARK  132  A    between atoms: _315  and  _316
REMARK  133  A    between atoms: _320  and  _322
REMARK  134  A    between atoms: _322  and  _323
REMARK  135  A    between atoms: _322  and  _325
REMARK  136  A    between atoms: _325  and  _326
REMARK  137  A    between atoms: _326  and  _327
REMARK  138  A    between atoms: _330  and  _332
REMARK  139  A    between atoms: _332  and  _333
REMARK  140  A    between atoms: _332  and  _335
REMARK  141  A    between atoms: _335  and  _336
REMARK  142  A    between atoms: _342  and  _344
REMARK  143  A    between atoms: _344  and  _345
REMARK  144  A    between atoms: _344  and  _347
REMARK  145  A    between atoms: _347  and  _348
REMARK  146  A    between atoms: _354  and  _356
REMARK  147  A    between atoms: _356  and  _357
REMARK  148  A    between atoms: _356  and  _359
REMARK  149  A    between atoms: _362  and  _364
REMARK  150  A    between atoms: _364  and  _365
REMARK  151  A    between atoms: _364  and  _367
REMARK  152  A    between atoms: _367  and  _368
REMARK  153  A    between atoms: _371  and  _373
REMARK  154  A    between atoms: _373  and  _374
REMARK  155  A    between atoms: _373  and  _376
REMARK  156  A    between atoms: _376  and  _377
REMARK  157  A    between atoms: _380  and  _382
REMARK  158  A    between atoms: _382  and  _383
REMARK  159  A    between atoms: _386  and  _388
REMARK  160  A    between atoms: _388  and  _389
REMARK  161  A    between atoms: _391  and  _393
REMARK  162  A    between atoms: _393  and  _394
REMARK  163  A    between atoms: _393  and  _396
REMARK  164  A    between atoms: _399  and  _401
REMARK  165  A    between atoms: _401  and  _402
REMARK  166  A    between atoms: _401  and  _404
REMARK  167  A    between atoms: _404  and  _405
REMARK  168  A    between atoms: _411  and  _413
REMARK  169  A    between atoms: _413  and  _414
REMARK  170  A    between atoms: _413  and  _416
REMARK  171  A    between atoms: _416  and  _417
REMARK  172  A    between atoms: _420  and  _422
REMARK  173  A    between atoms: _422  and  _423
REMARK  174  A    between atoms: _422  and  _425
REMARK  175  A    between atoms: _425  and  _426
REMARK  176  A    between atoms: _429  and  _431
REMARK  177  A    between atoms: _431  and  _432
REMARK  178  A    between atoms: _431  and  _434
REMARK  179  A    between atoms: _434  and  _435
REMARK  180  A    between atoms: _435  and  _436
REMARK  181  A    between atoms: _439  and  _441
REMARK  182  A    between atoms: _441  and  _442
REMARK  183  A    between atoms: _441  and  _444
REMARK  184  A    between atoms: _444  and  _445
REMARK  185  A    between atoms: _447  and  _449
REMARK  186  A    between atoms: _449  and  _450
REMARK  187  A    between atoms: _449  and  _452
REMARK  188  A    between atoms: _452  and  _453
REMARK  189  A    between atoms: _456  and  _458
REMARK  190  A    between atoms: _458  and  _459
REMARK  191  A    between atoms: _458  and  _461
REMARK  192  A    between atoms: _461  and  _462
REMARK  193  A    between atoms: _462  and  _463
REMARK  194  A    between atoms: _465  and  _467
REMARK  195  A    between atoms: _467  and  _468
REMARK  196  A    between atoms: _467  and  _470
REMARK  197  A    between atoms: _470  and  _471
REMARK  198  A    between atoms: _476  and  _478
REMARK  199  A    between atoms: _478  and  _479
REMARK  200  A    between atoms: _478  and  _481
REMARK  201  A    between atoms: _481  and  _482
REMARK  202  A    between atoms: _487  and  _488
REMARK  203  A    between atoms: _490  and  _492
REMARK  204  A    between atoms: _492  and  _493
REMARK  205  A    between atoms: _492  and  _495
REMARK  206  A    between atoms: _495  and  _496
REMARK  207  A    between atoms: _499  and  _501
REMARK  208  A    between atoms: _501  and  _502
REMARK  209  A    between atoms: _501  and  _504
REMARK  210  A    between atoms: _504  and  _505
REMARK  211  A    between atoms: _505  and  _506
REMARK  212  A    between atoms: _506  and  _507
REMARK  213  A    between atoms: _507  and  _508
REMARK  214  A    between atoms: _512  and  _514
REMARK  215  A    between atoms: _514  and  _515
REMARK  216  A    between atoms: _517  and  _519
REMARK  217  A    between atoms: _519  and  _520
REMARK  218  A    between atoms: _519  and  _522
REMARK  219  A    between atoms: _522  and  _523
REMARK  220  A    between atoms: _528  and  _529
REMARK  221  A    between atoms: _531  and  _533
REMARK  222  A    between atoms: _533  and  _534
REMARK  223  A    between atoms: _536  and  _538
REMARK  224  A    between atoms: _538  and  _539
REMARK  225  A    between atoms: _538  and  _541
REMARK  226  A    between atoms: _541  and  _542
REMARK                            x       y       z     vdW  Elec       q    Type
REMARK                         _______ _______ _______ _____ _____    ______ ____
ROOT
ATOM      1  O   HOH     1      23.929   8.676  55.579  0.00  0.00    +0.000 OA
ENDROOT
TORSDOF 0
REMARK  Name = ../refined-set-2016/1syi/1syi_pocket.pdb
REMARK  226 active torsions:
REMARK  status: ('A' for Active; 'I' for Inactive)
REMARK    1  A    between atoms: _1  and  _3
REMARK    2  A    between atoms: _3  and  _4
REMARK    3  A    between atoms: _3  and  _6
REMARK    4  A    between atoms: _6  and  _7
REMARK    5  A    between atoms: _10  and  _12
REMARK    6  A    between atoms: _12  and  _13
REMARK    7  A    between atoms: _12  and  _15
REMARK    8  A    between atoms: _15  and  _16
REMARK    9  A    between atoms: _16  and  _17
REMARK   10  A    between atoms: _20  and  _22
REMARK   11  A    between atoms: _22  and  _23
REMARK   12  A    between atoms: _22  and  _25
REMARK   13  A    between atoms: _25  and  _26
REMARK   14  A    between atoms: _29  and  _30
REMARK   15  A    between atoms: _35  and  _37
REMARK   16  A    between atoms: _37  and  _38
REMARK   17  A    between atoms: _37  and  _40
REMARK   18  A    between atoms: _40  and  _41
REMARK   19  A    between atoms: _46  and  _47
REMARK   20  A    between atoms: _49  and  _51
REMARK   21  A    between atoms: _51  and  _52
REMARK   22  A    between atoms: _51  and  _54
REMARK   23  A    between atoms: _54  and  _55
REMARK   24  A    between atoms: _55  and  _56
REMARK   25  A    between atoms: _56  and  _57
REMARK   26  A    between atoms: _57  and  _58
REMARK   27  A    between atoms: _62  and  _64
REMARK   28  A    between atoms: _64  and  _65
REMARK   29  A    between atoms: _64  and  _67
REMARK   30  A    between atoms: _67  and  _68
REMARK   31  A    between atoms: _73  and  _74
REMARK   32  A    between atoms: _76  and  _78
REMARK   33  A    between atoms: _78  and  _79
REMARK   34  A    between atoms: _81  and  _83
REMARK   35  A    between atoms: _83  and  _84
REMARK   36  A    between atoms: _87  and  _89
REMARK   37  A    between atoms: _89  and  _90
REMARK   38  A    between atoms: _89  and  _92
REMARK   39  A    between atoms: _92  and  _93
REMARK   40  A    between atoms: _103  and  _105
REMARK   41  A    between atoms: _105  and  _106
REMARK   42  A    between atoms: _105  and  _108
REMARK   43  A    between atoms: _108  and  _109
REMARK   44  A    between atoms: _109  and  _110
REMARK   45  A    between atoms: _112  and  _114
REMARK   46  A    between atoms: _114  and  _115
REMARK   47  A    between atoms: _114  and  _117
REMARK   48  A    between atoms: _120  and  _122
REMARK   49  A    between atoms: _122  and  _123
REMARK   50  A    between atoms: _127  and  _128
REMARK   51  A    between atoms: _133  and  _135
REMARK   52  A    between atoms: _135  and  _136
REMARK   53  A    between atoms: _135  and  _138
REMARK   54  A    between atoms: _138  and  _139
REMARK   55  A    between atoms: _142  and  _144
REMARK   56  A    between atoms: _144  and  _145
REMARK   57  A    between atoms: _144  and  _147
REMARK   58  A    between atoms: _147  and  _148
REMARK   59  A    between atoms: _151  and  _153
REMARK   60  A    between atoms: _153  and  _154
REMARK   61  A    between atoms: _153  and  _156
REMARK   62  A    between atoms: _156  and  _157
REMARK   63  A    between atoms: _160  and  _162
REMARK   64  A    between atoms: _162  and  _163
REMARK   65  A    between atoms: _162  and  _165
REMARK   66  A    between atoms: _165  and  _166
REMARK   67  A    between atoms: _169  and  _171
REMARK   68  A    between atoms: _171  and  _172
REMARK   69  A    between atoms: _171  and  _174
REMARK   70  A    between atoms: _174  and  _175
REMARK   71  A    between atoms: _175  and  _176
REMARK   72  A    between atoms: _176  and  _177
REMARK   73  A    between atoms: _186  and  _188
REMARK   74  A    between atoms: _188  and  _189
REMARK   75  A    between atoms: _188  and  _191
REMARK   76  A    between atoms: _191  and  _192
REMARK   77  A    between atoms: _198  and  _200
REMARK   78  A    between atoms: _200  and  _201
REMARK   79  A    between atoms: _200  and  _203
REMARK   80  A    between atoms: _203  and  _204
REMARK   81  A    between atoms: _210  and  _212
REMARK   82  A    between atoms: _212  and  _213
REMARK   83  A    between atoms: _212  and  _215
REMARK   84  A    between atoms: _215  and  _216
REMARK   85  A    between atoms: _219  and  _221
REMARK   86  A    between atoms: _221  and  _222
REMARK   87  A    between atoms: _224  and  _226
REMARK   88  A    between atoms: _226  and  _227
REMARK   89  A    between atoms: _226  and  _229
REMARK   90  A    between atoms: _229  and  _230
REMARK   91  A    between atoms: _233  and  _235
REMARK   92  A    between atoms: _235  and  _236
REMARK   93  A    between atoms: _235  and  _238
REMARK   94  A    between atoms: _238  and  _239
REMARK   95  A    between atoms: _241  and  _243
REMARK   96  A    between atoms: _243  and  _244
REMARK   97  A    between atoms: _243  and  _246
REMARK   98  A    between atoms: _246  and  _247
REMARK   99  A    between atoms: _247  and  _248
REMARK  100  A    between atoms: _250  and  _252
REMARK  101  A    between atoms: _252  and  _253
REMARK  102  A    between atoms: _252  and  _255
REMARK  103  A    between atoms: _255  and  _256
REMARK  104  A    between atoms: _259  and  _261
REMARK  105  A    between atoms: _261  and  _262
REMARK  106  A    between atoms: _261  and  _264
REMARK  107  A    between atoms: _264  and  _265
REMARK  108  A    between atoms: _268  and  _270
REMARK  109  A    between atoms: _270  and  _271
REMARK  110  A    between atoms: _270  and  _273
REMARK  111  A    between atoms: _273  and  _274
REMARK  112  A    between atoms: _277  and  _279
REMARK  113  A    between atoms: _279  and  _280
REMARK  114  A    between atoms: _279  and  _282
REMARK  115  A    between atoms: _282  and  _283
REMARK  116  A    between atoms: _285  and  _287
REMARK  117  A    between atoms: _287  and  _288
REMARK  118  A    between atoms: _290  and  _292
REMARK  119  A    between atoms: _292  and  _293
REMARK  120  A    between atoms: _292  and  _295
REMARK  121  A    between atoms: _295  and  _296
REMARK  122  A    between atoms: _298  and  _300
REMARK  123  A    between atoms: _300  and  _301
REMARK  124  A    between atoms: _300  and  _303
REMARK  125  A    between atoms: _303  and  _304
REMARK  126  A    between atoms: _307  and  _309
REMARK  127  A    between atoms: _309  and  _310
REMARK  128  A    between atoms: _309  and  _312
REMARK  129  A    between atoms: _312  and  _313
REMARK  130  A    between atoms: _313  and  _314
REMARK  131  A    between atoms: _314  and  _315
REMARK  132  A    between atoms: _315  and  _316
REMARK  133  A    between atoms: _320  and  _322
REMARK  134  A    between atoms: _322  and  _323
REMARK  135  A    between atoms: _322  and  _325
REMARK  136  A    between atoms: _325  and  _326
REMARK  137  A    between atoms: _326  and  _327
REMARK  138  A    between atoms: _330  and  _332
REMARK  139  A    between atoms: _332  and  _333
REMARK  140  A    between atoms: _332  and  _335
REMARK  141  A    between atoms: _335  and  _336
REMARK  142  A    between atoms: _342  and  _344
REMARK  143  A    between atoms: _344  and  _345
REMARK  144  A    between atoms: _344  and  _347
REMARK  145  A    between atoms: _347  and  _348
REMARK  146  A    between atoms: _354  and  _356
REMARK  147  A    between atoms: _356  and  _357
REMARK  148  A    between atoms: _356  and  _359
REMARK  149  A    between atoms: _362  and  _364
REMARK  150  A    between atoms: _364  and  _365
REMARK  151  A    between atoms: _364  and  _367
REMARK  152  A    between atoms: _367  and  _368
REMARK  153  A    between atoms: _371  and  _373
REMARK  154  A    between atoms: _373  and  _374
REMARK  155  A    between atoms: _373  and  _376
REMARK  156  A    between atoms: _376  and  _377
REMARK  157  A    between atoms: _380  and  _382
REMARK  158  A    between atoms: _382  and  _383
REMARK  159  A    between atoms: _386  and  _388
REMARK  160  A    between atoms: _388  and  _389
REMARK  161  A    between atoms: _391  and  _393
REMARK  162  A    between atoms: _393  and  _394
REMARK  163  A    between atoms: _393  and  _396
REMARK  164  A    between atoms: _399  and  _401
REMARK  165  A    between atoms: _401  and  _402
REMARK  166  A    between atoms: _401  and  _404
REMARK  167  A    between atoms: _404  and  _405
REMARK  168  A    between atoms: _411  and  _413
REMARK  169  A    between atoms: _413  and  _414
REMARK  170  A    between atoms: _413  and  _416
REMARK  171  A    between atoms: _416  and  _417
REMARK  172  A    between atoms: _420  and  _422
REMARK  173  A    between atoms: _422  and  _423
REMARK  174  A    between atoms: _422  and  _425
REMARK  175  A    between atoms: _425  and  _426
REMARK  176  A    between atoms: _429  and  _431
REMARK  177  A    between atoms: _431  and  _432
REMARK  178  A    between atoms: _431  and  _434
REMARK  179  A    between atoms: _434  and  _435
REMARK  180  A    between atoms: _435  and  _436
REMARK  181  A    between atoms: _439  and  _441
REMARK  182  A    between atoms: _441  and  _442
REMARK  183  A    between atoms: _441  and  _444
REMARK  184  A    between atoms: _444  and  _445
REMARK  185  A    between atoms: _447  and  _449
REMARK  186  A    between atoms: _449  and  _450
REMARK  187  A    between atoms: _449  and  _452
REMARK  188  A    between atoms: _452  and  _453
REMARK  189  A    between atoms: _456  and  _458
REMARK  190  A    between atoms: _458  and  _459
REMARK  191  A    between atoms: _458  and  _461
REMARK  192  A    between atoms: _461  and  _462
REMARK  193  A    between atoms: _462  and  _463
REMARK  194  A    between atoms: _465  and  _467
REMARK  195  A    between atoms: _467  and  _468
REMARK  196  A    between atoms: _467  and  _470
REMARK  197  A    between atoms: _470  and  _471
REMARK  198  A    between atoms: _476  and  _478
REMARK  199  A    between atoms: _478  and  _479
REMARK  200  A    between atoms: _478  and  _481
REMARK  201  A    between atoms: _481  and  _482
REMARK  202  A    between atoms: _487  and  _488
REMARK  203  A    between atoms: _490  and  _492
REMARK  204  A    between atoms: _492  and  _493
REMARK  205  A    between atoms: _492  and  _495
REMARK  206  A    between atoms: _495  and  _496
REMARK  207  A    between atoms: _499  and  _501
REMARK  208  A    between atoms: _501  and  _502
REMARK  209  A    between atoms: _501  and  _504
REMARK  210  A    between atoms: _504  and  _505
REMARK  211  A    between atoms: _505  and  _506
REMARK  212  A    between atoms: _506  and  _507
REMARK  213  A    between atoms: _507  and  _508
REMARK  214  A    between atoms: _512  and  _514
REMARK  215  A    between atoms: _514  and  _515
REMARK  216  A    between atoms: _517  and  _519
REMARK  217  A    between atoms: _519  and  _520
REMARK  218  A    between atoms: _519  and  _522
REMARK  219  A    between atoms: _522  and  _523
REMARK  220  A    between atoms: _528  and  _529
REMARK  221  A    between atoms: _531  and  _533
REMARK  222  A    between atoms: _533  and  _534
REMARK  223  A    between atoms: _536  and  _538
REMARK  224  A    between atoms: _538  and  _539
REMARK  225  A    between atoms: _538  and  _541
REMARK  226  A    between atoms: _541  and  _542
REMARK                            x       y       z     vdW  Elec       q    Type
REMARK                         _______ _______ _______ _____ _____    ______ ____
ROOT
ATOM      1  O   HOH     1      26.785  20.311  60.099  0.00  0.00    +0.000 OA
ENDROOT
TORSDOF 0
REMARK  Name = ../refined-set-2016/1syi/1syi_pocket.pdb
REMARK  226 active torsions:
REMARK  status: ('A' for Active; 'I' for Inactive)
REMARK    1  A    between atoms: _1  and  _3
REMARK    2  A    between atoms: _3  and  _4
REMARK    3  A    between atoms: _3  and  _6
REMARK    4  A    between atoms: _6  and  _7
REMARK    5  A    between atoms: _10  and  _12
REMARK    6  A    between atoms: _12  and  _13
REMARK    7  A    between atoms: _12  and  _15
REMARK    8  A    between atoms: _15  and  _16
REMARK    9  A    between atoms: _16  and  _17
REMARK   10  A    between atoms: _20  and  _22
REMARK   11  A    between atoms: _22  and  _23
REMARK   12  A    between atoms: _22  and  _25
REMARK   13  A    between atoms: _25  and  _26
REMARK   14  A    between atoms: _29  and  _30
REMARK   15  A    between atoms: _35  and  _37
REMARK   16  A    between atoms: _37  and  _38
REMARK   17  A    between atoms: _37  and  _40
REMARK   18  A    between atoms: _40  and  _41
REMARK   19  A    between atoms: _46  and  _47
REMARK   20  A    between atoms: _49  and  _51
REMARK   21  A    between atoms: _51  and  _52
REMARK   22  A    between atoms: _51  and  _54
REMARK   23  A    between atoms: _54  and  _55
REMARK   24  A    between atoms: _55  and  _56
REMARK   25  A    between atoms: _56  and  _57
REMARK   26  A    between atoms: _57  and  _58
REMARK   27  A    between atoms: _62  and  _64
REMARK   28  A    between atoms: _64  and  _65
REMARK   29  A    between atoms: _64  and  _67
REMARK   30  A    between atoms: _67  and  _68
REMARK   31  A    between atoms: _73  and  _74
REMARK   32  A    between atoms: _76  and  _78
REMARK   33  A    between atoms: _78  and  _79
REMARK   34  A    between atoms: _81  and  _83
REMARK   35  A    between atoms: _83  and  _84
REMARK   36  A    between atoms: _87  and  _89
REMARK   37  A    between atoms: _89  and  _90
REMARK   38  A    between atoms: _89  and  _92
REMARK   39  A    between atoms: _92  and  _93
REMARK   40  A    between atoms: _103  and  _105
REMARK   41  A    between atoms: _105  and  _106
REMARK   42  A    between atoms: _105  and  _108
REMARK   43  A    between atoms: _108  and  _109
REMARK   44  A    between atoms: _109  and  _110
REMARK   45  A    between atoms: _112  and  _114
REMARK   46  A    between atoms: _114  and  _115
REMARK   47  A    between atoms: _114  and  _117
REMARK   48  A    between atoms: _120  and  _122
REMARK   49  A    between atoms: _122  and  _123
REMARK   50  A    between atoms: _127  and  _128
REMARK   51  A    between atoms: _133  and  _135
REMARK   52  A    between atoms: _135  and  _136
REMARK   53  A    between atoms: _135  and  _138
REMARK   54  A    between atoms: _138  and  _139
REMARK   55  A    between atoms: _142  and  _144
REMARK   56  A    between atoms: _144  and  _145
REMARK   57  A    between atoms: _144  and  _147
REMARK   58  A    between atoms: _147  and  _148
REMARK   59  A    between atoms: _151  and  _153
REMARK   60  A    between atoms: _153  and  _154
REMARK   61  A    between atoms: _153  and  _156
REMARK   62  A    between atoms: _156  and  _157
REMARK   63  A    between atoms: _160  and  _162
REMARK   64  A    between atoms: _162  and  _163
REMARK   65  A    between atoms: _162  and  _165
REMARK   66  A    between atoms: _165  and  _166
REMARK   67  A    between atoms: _169  and  _171
REMARK   68  A    between atoms: _171  and  _172
REMARK   69  A    between atoms: _171  and  _174
REMARK   70  A    between atoms: _174  and  _175
REMARK   71  A    between atoms: _175  and  _176
REMARK   72  A    between atoms: _176  and  _177
REMARK   73  A    between atoms: _186  and  _188
REMARK   74  A    between atoms: _188  and  _189
REMARK   75  A    between atoms: _188  and  _191
REMARK   76  A    between atoms: _191  and  _192
REMARK   77  A    between atoms: _198  and  _200
REMARK   78  A    between atoms: _200  and  _201
REMARK   79  A    between atoms: _200  and  _203
REMARK   80  A    between atoms: _203  and  _204
REMARK   81  A    between atoms: _210  and  _212
REMARK   82  A    between atoms: _212  and  _213
REMARK   83  A    between atoms: _212  and  _215
REMARK   84  A    between atoms: _215  and  _216
REMARK   85  A    between atoms: _219  and  _221
REMARK   86  A    between atoms: _221  and  _222
REMARK   87  A    between atoms: _224  and  _226
REMARK   88  A    between atoms: _226  and  _227
REMARK   89  A    between atoms: _226  and  _229
REMARK   90  A    between atoms: _229  and  _230
REMARK   91  A    between atoms: _233  and  _235
REMARK   92  A    between atoms: _235  and  _236
REMARK   93  A    between atoms: _235  and  _238
REMARK   94  A    between atoms: _238  and  _239
REMARK   95  A    between atoms: _241  and  _243
REMARK   96  A    between atoms: _243  and  _244
REMARK   97  A    between atoms: _243  and  _246
REMARK   98  A    between atoms: _246  and  _247
REMARK   99  A    between atoms: _247  and  _248
REMARK  100  A    between atoms: _250  and  _252
REMARK  101  A    between atoms: _252  and  _253
REMARK  102  A    between atoms: _252  and  _255
REMARK  103  A    between atoms: _255  and  _256
REMARK  104  A    between atoms: _259  and  _261
REMARK  105  A    between atoms: _261  and  _262
REMARK  106  A    between atoms: _261  and  _264
REMARK  107  A    between atoms: _264  and  _265
REMARK  108  A    between atoms: _268  and  _270
REMARK  109  A    between atoms: _270  and  _271
REMARK  110  A    between atoms: _270  and  _273
REMARK  111  A    between atoms: _273  and  _274
REMARK  112  A    between atoms: _277  and  _279
REMARK  113  A    between atoms: _279  and  _280
REMARK  114  A    between atoms: _279  and  _282
REMARK  115  A    between atoms: _282  and  _283
REMARK  116  A    between atoms: _285  and  _287
REMARK  117  A    between atoms: _287  and  _288
REMARK  118  A    between atoms: _290  and  _292
REMARK  119  A    between atoms: _292  and  _293
REMARK  120  A    between atoms: _292  and  _295
REMARK  121  A    between atoms: _295  and  _296
REMARK  122  A    between atoms: _298  and  _300
REMARK  123  A    between atoms: _300  and  _301
REMARK  124  A    between atoms: _300  and  _303
REMARK  125  A    between atoms: _303  and  _304
REMARK  126  A    between atoms: _307  and  _309
REMARK  127  A    between atoms: _309  and  _310
REMARK  128  A    between atoms: _309  and  _312
REMARK  129  A    between atoms: _312  and  _313
REMARK  130  A    between atoms: _313  and  _314
REMARK  131  A    between atoms: _314  and  _315
REMARK  132  A    between atoms: _315  and  _316
REMARK  133  A    between atoms: _320  and  _322
REMARK  134  A    between atoms: _322  and  _323
REMARK  135  A    between atoms: _322  and  _325
REMARK  136  A    between atoms: _325  and  _326
REMARK  137  A    between atoms: _326  and  _327
REMARK  138  A    between atoms: _330  and  _332
REMARK  139  A    between atoms: _332  and  _333
REMARK  140  A    between atoms: _332  and  _335
REMARK  141  A    between atoms: _335  and  _336
REMARK  142  A    between atoms: _342  and  _344
REMARK  143  A    between atoms: _344  and  _345
REMARK  144  A    between atoms: _344  and  _347
REMARK  145  A    between atoms: _347  and  _348
REMARK  146  A    between atoms: _354  and  _356
REMARK  147  A    between atoms: _356  and  _357
REMARK  148  A    between atoms: _356  and  _359
REMARK  149  A    between atoms: _362  and  _364
REMARK  150  A    between atoms: _364  and  _365
REMARK  151  A    between atoms: _364  and  _367
REMARK  152  A    between atoms: _367  and  _368
REMARK  153  A    between atoms: _371  and  _373
REMARK  154  A    between atoms: _373  and  _374
REMARK  155  A    between atoms: _373  and  _376
REMARK  156  A    between atoms: _376  and  _377
REMARK  157  A    between atoms: _380  and  _382
REMARK  158  A    between atoms: _382  and  _383
REMARK  159  A    between atoms: _386  and  _388
REMARK  160  A    between atoms: _388  and  _389
REMARK  161  A    between atoms: _391  and  _393
REMARK  162  A    between atoms: _393  and  _394
REMARK  163  A    between atoms: _393  and  _396
REMARK  164  A    between atoms: _399  and  _401
REMARK  165  A    between atoms: _401  and  _402
REMARK  166  A    between atoms: _401  and  _404
REMARK  167  A    between atoms: _404  and  _405
REMARK  168  A    between atoms: _411  and  _413
REMARK  169  A    between atoms: _413  and  _414
REMARK  170  A    between atoms: _413  and  _416
REMARK  171  A    between atoms: _416  and  _417
REMARK  172  A    between atoms: _420  and  _422
REMARK  173  A    between atoms: _422  and  _423
REMARK  174  A    between atoms: _422  and  _425
REMARK  175  A    between atoms: _425  and  _426
REMARK  176  A    between atoms: _429  and  _431
REMARK  177  A    between atoms: _431  and  _432
REMARK  178  A    between atoms: _431  and  _434
REMARK  179  A    between atoms: _434  and  _435
REMARK  180  A    between atoms: _435  and  _436
REMARK  181  A    between atoms: _439  and  _441
REMARK  182  A    between atoms: _441  and  _442
REMARK  183  A    between atoms: _441  and  _444
REMARK  184  A    between atoms: _444  and  _445
REMARK  185  A    between atoms: _447  and  _449
REMARK  186  A    between atoms: _449  and  _450
REMARK  187  A    between atoms: _449  and  _452
REMARK  188  A    between atoms: _452  and  _453
REMARK  189  A    between atoms: _456  and  _458
REMARK  190  A    between atoms: _458  and  _459
REMARK  191  A    between atoms: _458  and  _461
REMARK  192  A    between atoms: _461  and  _462
REMARK  193  A    between atoms: _462  and  _463
REMARK  194  A    between atoms: _465  and  _467
REMARK  195  A    between atoms: _467  and  _468
REMARK  196  A    between atoms: _467  and  _470
REMARK  197  A    between atoms: _470  and  _471
REMARK  198  A    between atoms: _476  and  _478
REMARK  199  A    between atoms: _478  and  _479
REMARK  200  A    between atoms: _478  and  _481
REMARK  201  A    between atoms: _481  and  _482
REMARK  202  A    between atoms: _487  and  _488
REMARK  203  A    between atoms: _490  and  _492
REMARK  204  A    between atoms: _492  and  _493
REMARK  205  A    between atoms: _492  and  _495
REMARK  206  A    between atoms: _495  and  _496
REMARK  207  A    between atoms: _499  and  _501
REMARK  208  A    between atoms: _501  and  _502
REMARK  209  A    between atoms: _501  and  _504
REMARK  210  A    between atoms: _504  and  _505
REMARK  211  A    between atoms: _505  and  _506
REMARK  212  A    between atoms: _506  and  _507
REMARK  213  A    between atoms: _507  and  _508
REMARK  214  A    between atoms: _512  and  _514
REMARK  215  A    between atoms: _514  and  _515
REMARK  216  A    between atoms: _517  and  _519
REMARK  217  A    between atoms: _519  and  _520
REMARK  218  A    between atoms: _519  and  _522
REMARK  219  A    between atoms: _522  and  _523
REMARK  220  A    between atoms: _528  and  _529
REMARK  221  A    between atoms: _531  and  _533
REMARK  222  A    between atoms: _533  and  _534
REMARK  223  A    between atoms: _536  and  _538
REMARK  224  A    between atoms: _538  and  _539
REMARK  225  A    between atoms: _538  and  _541
REMARK  226  A    between atoms: _541  and  _542
REMARK                            x       y       z     vdW  Elec       q    Type
REMARK                         _______ _______ _______ _____ _____    ______ ____
ROOT
ATOM      1  O   HOH     1      15.231  13.204  51.289  0.00  0.00    +0.000 OA
ENDROOT
TORSDOF 0
REMARK  Name = ../refined-set-2016/1syi/1syi_pocket.pdb
REMARK  226 active torsions:
REMARK  status: ('A' for Active; 'I' for Inactive)
REMARK    1  A    between atoms: _1  and  _3
REMARK    2  A    between atoms: _3  and  _4
REMARK    3  A    between atoms: _3  and  _6
REMARK    4  A    between atoms: _6  and  _7
REMARK    5  A    between atoms: _10  and  _12
REMARK    6  A    between atoms: _12  and  _13
REMARK    7  A    between atoms: _12  and  _15
REMARK    8  A    between atoms: _15  and  _16
REMARK    9  A    between atoms: _16  and  _17
REMARK   10  A    between atoms: _20  and  _22
REMARK   11  A    between atoms: _22  and  _23
REMARK   12  A    between atoms: _22  and  _25
REMARK   13  A    between atoms: _25  and  _26
REMARK   14  A    between atoms: _29  and  _30
REMARK   15  A    between atoms: _35  and  _37
REMARK   16  A    between atoms: _37  and  _38
REMARK   17  A    between atoms: _37  and  _40
REMARK   18  A    between atoms: _40  and  _41
REMARK   19  A    between atoms: _46  and  _47
REMARK   20  A    between atoms: _49  and  _51
REMARK   21  A    between atoms: _51  and  _52
REMARK   22  A    between atoms: _51  and  _54
REMARK   23  A    between atoms: _54  and  _55
REMARK   24  A    between atoms: _55  and  _56
REMARK   25  A    between atoms: _56  and  _57
REMARK   26  A    between atoms: _57  and  _58
REMARK   27  A    between atoms: _62  and  _64
REMARK   28  A    between atoms: _64  and  _65
REMARK   29  A    between atoms: _64  and  _67
REMARK   30  A    between atoms: _67  and  _68
REMARK   31  A    between atoms: _73  and  _74
REMARK   32  A    between atoms: _76  and  _78
REMARK   33  A    between atoms: _78  and  _79
REMARK   34  A    between atoms: _81  and  _83
REMARK   35  A    between atoms: _83  and  _84
REMARK   36  A    between atoms: _87  and  _89
REMARK   37  A    between atoms: _89  and  _90
REMARK   38  A    between atoms: _89  and  _92
REMARK   39  A    between atoms: _92  and  _93
REMARK   40  A    between atoms: _103  and  _105
REMARK   41  A    between atoms: _105  and  _106
REMARK   42  A    between atoms: _105  and  _108
REMARK   43  A    between atoms: _108  and  _109
REMARK   44  A    between atoms: _109  and  _110
REMARK   45  A    between atoms: _112  and  _114
REMARK   46  A    between atoms: _114  and  _115
REMARK   47  A    between atoms: _114  and  _117
REMARK   48  A    between atoms: _120  and  _122
REMARK   49  A    between atoms: _122  and  _123
REMARK   50  A    between atoms: _127  and  _128
REMARK   51  A    between atoms: _133  and  _135
REMARK   52  A    between atoms: _135  and  _136
REMARK   53  A    between atoms: _135  and  _138
REMARK   54  A    between atoms: _138  and  _139
REMARK   55  A    between atoms: _142  and  _144
REMARK   56  A    between atoms: _144  and  _145
REMARK   57  A    between atoms: _144  and  _147
REMARK   58  A    between atoms: _147  and  _148
REMARK   59  A    between atoms: _151  and  _153
REMARK   60  A    between atoms: _153  and  _154
REMARK   61  A    between atoms: _153  and  _156
REMARK   62  A    between atoms: _156  and  _157
REMARK   63  A    between atoms: _160  and  _162
REMARK   64  A    between atoms: _162  and  _163
REMARK   65  A    between atoms: _162  and  _165
REMARK   66  A    between atoms: _165  and  _166
REMARK   67  A    between atoms: _169  and  _171
REMARK   68  A    between atoms: _171  and  _172
REMARK   69  A    between atoms: _171  and  _174
REMARK   70  A    between atoms: _174  and  _175
REMARK   71  A    between atoms: _175  and  _176
REMARK   72  A    between atoms: _176  and  _177
REMARK   73  A    between atoms: _186  and  _188
REMARK   74  A    between atoms: _188  and  _189
REMARK   75  A    between atoms: _188  and  _191
REMARK   76  A    between atoms: _191  and  _192
REMARK   77  A    between atoms: _198  and  _200
REMARK   78  A    between atoms: _200  and  _201
REMARK   79  A    between atoms: _200  and  _203
REMARK   80  A    between atoms: _203  and  _204
REMARK   81  A    between atoms: _210  and  _212
REMARK   82  A    between atoms: _212  and  _213
REMARK   83  A    between atoms: _212  and  _215
REMARK   84  A    between atoms: _215  and  _216
REMARK   85  A    between atoms: _219  and  _221
REMARK   86  A    between atoms: _221  and  _222
REMARK   87  A    between atoms: _224  and  _226
REMARK   88  A    between atoms: _226  and  _227
REMARK   89  A    between atoms: _226  and  _229
REMARK   90  A    between atoms: _229  and  _230
REMARK   91  A    between atoms: _233  and  _235
REMARK   92  A    between atoms: _235  and  _236
REMARK   93  A    between atoms: _235  and  _238
REMARK   94  A    between atoms: _238  and  _239
REMARK   95  A    between atoms: _241  and  _243
REMARK   96  A    between atoms: _243  and  _244
REMARK   97  A    between atoms: _243  and  _246
REMARK   98  A    between atoms: _246  and  _247
REMARK   99  A    between atoms: _247  and  _248
REMARK  100  A    between atoms: _250  and  _252
REMARK  101  A    between atoms: _252  and  _253
REMARK  102  A    between atoms: _252  and  _255
REMARK  103  A    between atoms: _255  and  _256
REMARK  104  A    between atoms: _259  and  _261
REMARK  105  A    between atoms: _261  and  _262
REMARK  106  A    between atoms: _261  and  _264
REMARK  107  A    between atoms: _264  and  _265
REMARK  108  A    between atoms: _268  and  _270
REMARK  109  A    between atoms: _270  and  _271
REMARK  110  A    between atoms: _270  and  _273
REMARK  111  A    between atoms: _273  and  _274
REMARK  112  A    between atoms: _277  and  _279
REMARK  113  A    between atoms: _279  and  _280
REMARK  114  A    between atoms: _279  and  _282
REMARK  115  A    between atoms: _282  and  _283
REMARK  116  A    between atoms: _285  and  _287
REMARK  117  A    between atoms: _287  and  _288
REMARK  118  A    between atoms: _290  and  _292
REMARK  119  A    between atoms: _292  and  _293
REMARK  120  A    between atoms: _292  and  _295
REMARK  121  A    between atoms: _295  and  _296
REMARK  122  A    between atoms: _298  and  _300
REMARK  123  A    between atoms: _300  and  _301
REMARK  124  A    between atoms: _300  and  _303
REMARK  125  A    between atoms: _303  and  _304
REMARK  126  A    between atoms: _307  and  _309
REMARK  127  A    between atoms: _309  and  _310
REMARK  128  A    between atoms: _309  and  _312
REMARK  129  A    between atoms: _312  and  _313
REMARK  130  A    between atoms: _313  and  _314
REMARK  131  A    between atoms: _314  and  _315
REMARK  132  A    between atoms: _315  and  _316
REMARK  133  A    between atoms: _320  and  _322
REMARK  134  A    between atoms: _322  and  _323
REMARK  135  A    between atoms: _322  and  _325
REMARK  136  A    between atoms: _325  and  _326
REMARK  137  A    between atoms: _326  and  _327
REMARK  138  A    between atoms: _330  and  _332
REMARK  139  A    between atoms: _332  and  _333
REMARK  140  A    between atoms: _332  and  _335
REMARK  141  A    between atoms: _335  and  _336
REMARK  142  A    between atoms: _342  and  _344
REMARK  143  A    between atoms: _344  and  _345
REMARK  144  A    between atoms: _344  and  _347
REMARK  145  A    between atoms: _347  and  _348
REMARK  146  A    between atoms: _354  and  _356
REMARK  147  A    between atoms: _356  and  _357
REMARK  148  A    between atoms: _356  and  _359
REMARK  149  A    between atoms: _362  and  _364
REMARK  150  A    between atoms: _364  and  _365
REMARK  151  A    between atoms: _364  and  _367
REMARK  152  A    between atoms: _367  and  _368
REMARK  153  A    between atoms: _371  and  _373
REMARK  154  A    between atoms: _373  and  _374
REMARK  155  A    between atoms: _373  and  _376
REMARK  156  A    between atoms: _376  and  _377
REMARK  157  A    between atoms: _380  and  _382
REMARK  158  A    between atoms: _382  and  _383
REMARK  159  A    between atoms: _386  and  _388
REMARK  160  A    between atoms: _388  and  _389
REMARK  161  A    between atoms: _391  and  _393
REMARK  162  A    between atoms: _393  and  _394
REMARK  163  A    between atoms: _393  and  _396
REMARK  164  A    between atoms: _399  and  _401
REMARK  165  A    between atoms: _401  and  _402
REMARK  166  A    between atoms: _401  and  _404
REMARK  167  A    between atoms: _404  and  _405
REMARK  168  A    between atoms: _411  and  _413
REMARK  169  A    between atoms: _413  and  _414
REMARK  170  A    between atoms: _413  and  _416
REMARK  171  A    between atoms: _416  and  _417
REMARK  172  A    between atoms: _420  and  _422
REMARK  173  A    between atoms: _422  and  _423
REMARK  174  A    between atoms: _422  and  _425
REMARK  175  A    between atoms: _425  and  _426
REMARK  176  A    between atoms: _429  and  _431
REMARK  177  A    between atoms: _431  and  _432
REMARK  178  A    between atoms: _431  and  _434
REMARK  179  A    between atoms: _434  and  _435
REMARK  180  A    between atoms: _435  and  _436
REMARK  181  A    between atoms: _439  and  _441
REMARK  182  A    between atoms: _441  and  _442
REMARK  183  A    between atoms: _441  and  _444
REMARK  184  A    between atoms: _444  and  _445
REMARK  185  A    between atoms: _447  and  _449
REMARK  186  A    between atoms: _449  and  _450
REMARK  187  A    between atoms: _449  and  _452
REMARK  188  A    between atoms: _452  and  _453
REMARK  189  A    between atoms: _456  and  _458
REMARK  190  A    between atoms: _458  and  _459
REMARK  191  A    between atoms: _458  and  _461
REMARK  192  A    between atoms: _461  and  _462
REMARK  193  A    between atoms: _462  and  _463
REMARK  194  A    between atoms: _465  and  _467
REMARK  195  A    between atoms: _467  and  _468
REMARK  196  A    between atoms: _467  and  _470
REMARK  197  A    between atoms: _470  and  _471
REMARK  198  A    between atoms: _476  and  _478
REMARK  199  A    between atoms: _478  and  _479
REMARK  200  A    between atoms: _478  and  _481
REMARK  201  A    between atoms: _481  and  _482
REMARK  202  A    between atoms: _487  and  _488
REMARK  203  A    between atoms: _490  and  _492
REMARK  204  A    between atoms: _492  and  _493
REMARK  205  A    between atoms: _492  and  _495
REMARK  206  A    between atoms: _495  and  _496
REMARK  207  A    between atoms: _499  and  _501
REMARK  208  A    between atoms: _501  and  _502
REMARK  209  A    between atoms: _501  and  _504
REMARK  210  A    between atoms: _504  and  _505
REMARK  211  A    between atoms: _505  and  _506
REMARK  212  A    between atoms: _506  and  _507
REMARK  213  A    between atoms: _507  and  _508
REMARK  214  A    between atoms: _512  and  _514
REMARK  215  A    between atoms: _514  and  _515
REMARK  216  A    between atoms: _517  and  _519
REMARK  217  A    between atoms: _519  and  _520
REMARK  218  A    between atoms: _519  and  _522
REMARK  219  A    between atoms: _522  and  _523
REMARK  220  A    between atoms: _528  and  _529
REMARK  221  A    between atoms: _531  and  _533
REMARK  222  A    between atoms: _533  and  _534
REMARK  223  A    between atoms: _536  and  _538
REMARK  224  A    between atoms: _538  and  _539
REMARK  225  A    between atoms: _538  and  _541
REMARK  226  A    between atoms: _541  and  _542
REMARK                            x       y       z     vdW  Elec       q    Type
REMARK                         _______ _______ _______ _____ _____    ______ ____
ROOT
ATOM      1  O   HOH     1      27.767  18.316  54.120  0.00  0.00    +0.000 OA
ENDROOT
TORSDOF 0
