REMARK  Name = ../refined-set-2016/4oeu/4oeu_pocket.pdb
REMARK  119 active torsions:
REMARK  status: ('A' for Active; 'I' for Inactive)
REMARK    1  A    between atoms: _1  and  _3
REMARK    2  A    between atoms: _3  and  _4
REMARK    3  A    between atoms: _3  and  _6
REMARK    4  A    between atoms: _6  and  _7
REMARK    5  A    between atoms: _7  and  _8
REMARK    6  A    between atoms: _11  and  _13
REMARK    7  A    between atoms: _13  and  _14
REMARK    8  A    between atoms: _13  and  _16
REMARK    9  A    between atoms: _16  and  _17
REMARK   10  A    between atoms: _22  and  _24
REMARK   11  A    between atoms: _24  and  _25
REMARK   12  A    between atoms: _24  and  _27
REMARK   13  A    between atoms: _27  and  _28
REMARK   14  A    between atoms: _28  and  _29
REMARK   15  A    between atoms: _32  and  _34
REMARK   16  A    between atoms: _34  and  _35
REMARK   17  A    between atoms: _34  and  _37
REMARK   18  A    between atoms: _37  and  _38
REMARK   19  A    between atoms: _38  and  _39
REMARK   20  A    between atoms: _42  and  _44
REMARK   21  A    between atoms: _44  and  _45
REMARK   22  A    between atoms: _44  and  _47
REMARK   23  A    between atoms: _47  and  _48
REMARK   24  A    between atoms: _51  and  _53
REMARK   25  A    between atoms: _53  and  _54
REMARK   26  A    between atoms: _53  and  _56
REMARK   27  A    between atoms: _56  and  _57
REMARK   28  A    between atoms: _61  and  NI_325
REMARK   29  A    between atoms: _62  and  _64
REMARK   30  A    between atoms: _64  and  _65
REMARK   31  A    between atoms: _64  and  _67
REMARK   32  A    between atoms: _67  and  _68
REMARK   33  A    between atoms: _71  and  _73
REMARK   34  A    between atoms: _73  and  _74
REMARK   35  A    between atoms: _73  and  _76
REMARK   36  A    between atoms: _76  and  _77
REMARK   37  A    between atoms: _82  and  _83
REMARK   38  A    between atoms: _85  and  _87
REMARK   39  A    between atoms: _87  and  _88
REMARK   40  A    between atoms: _87  and  _90
REMARK   41  A    between atoms: _90  and  _91
REMARK   42  A    between atoms: _91  and  _92
REMARK   43  A    between atoms: _92  and  _93
REMARK   44  A    between atoms: _102  and  _104
REMARK   45  A    between atoms: _104  and  _105
REMARK   46  A    between atoms: _108  and  _110
REMARK   47  A    between atoms: _110  and  _111
REMARK   48  A    between atoms: _110  and  _113
REMARK   49  A    between atoms: _113  and  _114
REMARK   50  A    between atoms: _114  and  _115
REMARK   51  A    between atoms: _117  and  _119
REMARK   52  A    between atoms: _119  and  _120
REMARK   53  A    between atoms: _119  and  _122
REMARK   54  A    between atoms: _122  and  _123
REMARK   55  A    between atoms: _123  and  _124
REMARK   56  A    between atoms: _126  and  _128
REMARK   57  A    between atoms: _128  and  _129
REMARK   58  A    between atoms: _128  and  _131
REMARK   59  A    between atoms: _131  and  _132
REMARK   60  A    between atoms: _137  and  _139
REMARK   61  A    between atoms: _139  and  _140
REMARK   62  A    between atoms: _139  and  _142
REMARK   63  A    between atoms: _142  and  _143
REMARK   64  A    between atoms: _146  and  _148
REMARK   65  A    between atoms: _148  and  _149
REMARK   66  A    between atoms: _148  and  _151
REMARK   67  A    between atoms: _151  and  _152
REMARK   68  A    between atoms: _152  and  _153
REMARK   69  A    between atoms: _153  and  _154
REMARK   70  A    between atoms: _163  and  _165
REMARK   71  A    between atoms: _165  and  _166
REMARK   72  A    between atoms: _169  and  _171
REMARK   73  A    between atoms: _171  and  _172
REMARK   74  A    between atoms: _174  and  _176
REMARK   75  A    between atoms: _176  and  _177
REMARK   76  A    between atoms: _176  and  _179
REMARK   77  A    between atoms: _179  and  _180
REMARK   78  A    between atoms: _186  and  _188
REMARK   79  A    between atoms: _188  and  _189
REMARK   80  A    between atoms: _188  and  _191
REMARK   81  A    between atoms: _191  and  _192
REMARK   82  A    between atoms: _197  and  _198
REMARK   83  A    between atoms: _200  and  _202
REMARK   84  A    between atoms: _202  and  _203
REMARK   85  A    between atoms: _202  and  _205
REMARK   86  A    between atoms: _205  and  _206
REMARK   87  A    between atoms: _212  and  _214
REMARK   88  A    between atoms: _214  and  _215
REMARK   89  A    between atoms: _214  and  _217
REMARK   90  A    between atoms: _217  and  _218
REMARK   91  A    between atoms: _221  and  _223
REMARK   92  A    between atoms: _223  and  _224
REMARK   93  A    between atoms: _223  and  _226
REMARK   94  A    between atoms: _226  and  _227
REMARK   95  A    between atoms: _230  and  _232
REMARK   96  A    between atoms: _232  and  _233
REMARK   97  A    between atoms: _235  and  _237
REMARK   98  A    between atoms: _237  and  _238
REMARK   99  A    between atoms: _237  and  _240
REMARK  100  A    between atoms: _240  and  _241
REMARK  101  A    between atoms: _251  and  _253
REMARK  102  A    between atoms: _253  and  _254
REMARK  103  A    between atoms: _256  and  _258
REMARK  104  A    between atoms: _258  and  _259
REMARK  105  A    between atoms: _258  and  _261
REMARK  106  A    between atoms: _261  and  _262
REMARK  107  A    between atoms: _267  and  _269
REMARK  108  A    between atoms: _269  and  _270
REMARK  109  A    between atoms: _269  and  _272
REMARK  110  A    between atoms: _275  and  _277
REMARK  111  A    between atoms: _277  and  _278
REMARK  112  A    between atoms: _277  and  _280
REMARK  113  A    between atoms: _280  and  _281
REMARK  114  A    between atoms: _291  and  _293
REMARK  115  A    between atoms: _293  and  _294
REMARK  116  A    between atoms: _293  and  _296
REMARK  117  A    between atoms: _296  and  _297
REMARK  118  A    between atoms: _303  and  _305
REMARK  119  A    between atoms: _316  and  _317
REMARK                            x       y       z     vdW  Elec       q    Type
REMARK                         _______ _______ _______ _____ _____    ______ ____
ROOT
ATOM      1  CA  ASN A   2     -78.018 -15.133  48.200  0.00  0.00    +0.158 C 
ENDROOT
BRANCH   1   4
ATOM      2  C   GLU A   1     -77.325 -14.088  50.270  0.00  0.00    +0.238 C 
ATOM      3  O   GLU A   1     -78.480 -13.733  50.503  0.00  0.00    -0.274 OA
ATOM      4  N   ASN A   2     -77.009 -14.825  49.210  0.00  0.00    -0.297 N 
ATOM      5  H   ASN A   2     -76.039 -15.184  49.099  0.00  0.00    +0.150 HD
BRANCH   2   6
ATOM      6  CA  GLU A   1     -76.195 -13.696  51.221  0.00  0.00    +0.145 C 
BRANCH   6   7
ATOM      7  N   GLU A   1     -75.131 -14.696  51.281  0.00  0.00    -0.238 NA
ATOM      8  H   GLU A   1     -74.261 -14.556  50.729  0.00  0.00    +0.142 HD
ENDBRANCH   6   7
BRANCH   6   9
ATOM      9  CB  GLU A   1     -75.635 -12.324  50.817  0.00  0.00    +0.038 C 
BRANCH   9  10
ATOM     10  CG  GLU A   1     -75.059 -12.251  49.404  0.00  0.00    +0.116 C 
BRANCH  10  11
ATOM     11  CD  GLU A   1     -74.739 -10.825  48.964  0.00  0.00    +0.365 C 
ATOM     12  OE2 GLU A   1     -75.501  -9.900  49.323  0.00  0.00    -0.246 OA
ATOM     13  OE1 GLU A   1     -73.726 -10.632  48.254  0.00  0.00    -0.246 OA
ENDBRANCH  10  11
ENDBRANCH   9  10
ENDBRANCH   6   9
ENDBRANCH   2   6
ENDBRANCH   1   4
BRANCH   1  14
ATOM     14  C   ASN A   2     -78.478 -16.582  48.261  0.00  0.00    +0.241 C 
ATOM     15  O   ASN A   2     -77.673 -17.500  48.423  0.00  0.00    -0.273 OA
ATOM     16  N   GLU A   3     -79.780 -16.772  48.086  0.00  0.00    -0.298 N 
ATOM     17  H   GLU A   3     -80.383 -15.945  47.902  0.00  0.00    +0.150 HD
BRANCH  16  18
ATOM     18  CA  GLU A   3     -80.400 -18.089  48.141  0.00  0.00    +0.137 C 
BRANCH  18  19
ATOM     19  C   GLU A   3     -81.067 -18.368  46.799  0.00  0.00    +0.227 C 
ATOM     20  O   GLU A   3     -81.445 -17.435  46.092  0.00  0.00    -0.286 OA
ENDBRANCH  18  19
BRANCH  18  21
ATOM     21  CB  GLU A   3     -81.418 -18.138  49.286  0.00  0.00    +0.039 C 
BRANCH  21  22
ATOM     22  CG  GLU A   3     -81.936 -19.514  49.660  0.00  0.00    +0.116 C 
BRANCH  22  23
ATOM     23  CD  GLU A   3     -82.933 -19.453  50.809  0.00  0.00    +0.365 C 
ATOM     24  OE2 GLU A   3     -83.203 -18.335  51.305  0.00  0.00    -0.246 OA
ATOM     25  OE1 GLU A   3     -83.440 -20.519  51.221  0.00  0.00    -0.246 OA
ENDBRANCH  22  23
ENDBRANCH  21  22
ENDBRANCH  18  21
ENDBRANCH  16  18
ENDBRANCH   1  14
BRANCH   1  26
ATOM     26  CB  ASN A   2     -77.500 -14.820  46.794  0.00  0.00    +0.114 C 
BRANCH  26  27
ATOM     27  CG  ASN A   2     -77.584 -13.348  46.453  0.00  0.00    +0.222 C 
ATOM     28  OD1 ASN A   2     -76.627 -12.599  46.655  0.00  0.00    -0.275 OA
ATOM     29  ND2 ASN A   2     -78.737 -12.921  45.946  0.00  0.00    -0.329 N 
ATOM     30 HD21 ASN A   2     -79.518 -13.591  45.793  0.00  0.00    +0.145 HD
ATOM     31 HD22 ASN A   2     -78.858 -11.917  45.703  0.00  0.00    +0.145 HD
ENDBRANCH  26  27
ENDBRANCH   1  26
TORSDOF 14
REMARK  Name = ../refined-set-2016/4oeu/4oeu_pocket.pdb
REMARK  119 active torsions:
REMARK  status: ('A' for Active; 'I' for Inactive)
REMARK    1  A    between atoms: _1  and  _3
REMARK    2  A    between atoms: _3  and  _4
REMARK    3  A    between atoms: _3  and  _6
REMARK    4  A    between atoms: _6  and  _7
REMARK    5  A    between atoms: _7  and  _8
REMARK    6  A    between atoms: _11  and  _13
REMARK    7  A    between atoms: _13  and  _14
REMARK    8  A    between atoms: _13  and  _16
REMARK    9  A    between atoms: _16  and  _17
REMARK   10  A    between atoms: _22  and  _24
REMARK   11  A    between atoms: _24  and  _25
REMARK   12  A    between atoms: _24  and  _27
REMARK   13  A    between atoms: _27  and  _28
REMARK   14  A    between atoms: _28  and  _29
REMARK   15  A    between atoms: _32  and  _34
REMARK   16  A    between atoms: _34  and  _35
REMARK   17  A    between atoms: _34  and  _37
REMARK   18  A    between atoms: _37  and  _38
REMARK   19  A    between atoms: _38  and  _39
REMARK   20  A    between atoms: _42  and  _44
REMARK   21  A    between atoms: _44  and  _45
REMARK   22  A    between atoms: _44  and  _47
REMARK   23  A    between atoms: _47  and  _48
REMARK   24  A    between atoms: _51  and  _53
REMARK   25  A    between atoms: _53  and  _54
REMARK   26  A    between atoms: _53  and  _56
REMARK   27  A    between atoms: _56  and  _57
REMARK   28  A    between atoms: _61  and  NI_325
REMARK   29  A    between atoms: _62  and  _64
REMARK   30  A    between atoms: _64  and  _65
REMARK   31  A    between atoms: _64  and  _67
REMARK   32  A    between atoms: _67  and  _68
REMARK   33  A    between atoms: _71  and  _73
REMARK   34  A    between atoms: _73  and  _74
REMARK   35  A    between atoms: _73  and  _76
REMARK   36  A    between atoms: _76  and  _77
REMARK   37  A    between atoms: _82  and  _83
REMARK   38  A    between atoms: _85  and  _87
REMARK   39  A    between atoms: _87  and  _88
REMARK   40  A    between atoms: _87  and  _90
REMARK   41  A    between atoms: _90  and  _91
REMARK   42  A    between atoms: _91  and  _92
REMARK   43  A    between atoms: _92  and  _93
REMARK   44  A    between atoms: _102  and  _104
REMARK   45  A    between atoms: _104  and  _105
REMARK   46  A    between atoms: _108  and  _110
REMARK   47  A    between atoms: _110  and  _111
REMARK   48  A    between atoms: _110  and  _113
REMARK   49  A    between atoms: _113  and  _114
REMARK   50  A    between atoms: _114  and  _115
REMARK   51  A    between atoms: _117  and  _119
REMARK   52  A    between atoms: _119  and  _120
REMARK   53  A    between atoms: _119  and  _122
REMARK   54  A    between atoms: _122  and  _123
REMARK   55  A    between atoms: _123  and  _124
REMARK   56  A    between atoms: _126  and  _128
REMARK   57  A    between atoms: _128  and  _129
REMARK   58  A    between atoms: _128  and  _131
REMARK   59  A    between atoms: _131  and  _132
REMARK   60  A    between atoms: _137  and  _139
REMARK   61  A    between atoms: _139  and  _140
REMARK   62  A    between atoms: _139  and  _142
REMARK   63  A    between atoms: _142  and  _143
REMARK   64  A    between atoms: _146  and  _148
REMARK   65  A    between atoms: _148  and  _149
REMARK   66  A    between atoms: _148  and  _151
REMARK   67  A    between atoms: _151  and  _152
REMARK   68  A    between atoms: _152  and  _153
REMARK   69  A    between atoms: _153  and  _154
REMARK   70  A    between atoms: _163  and  _165
REMARK   71  A    between atoms: _165  and  _166
REMARK   72  A    between atoms: _169  and  _171
REMARK   73  A    between atoms: _171  and  _172
REMARK   74  A    between atoms: _174  and  _176
REMARK   75  A    between atoms: _176  and  _177
REMARK   76  A    between atoms: _176  and  _179
REMARK   77  A    between atoms: _179  and  _180
REMARK   78  A    between atoms: _186  and  _188
REMARK   79  A    between atoms: _188  and  _189
REMARK   80  A    between atoms: _188  and  _191
REMARK   81  A    between atoms: _191  and  _192
REMARK   82  A    between atoms: _197  and  _198
REMARK   83  A    between atoms: _200  and  _202
REMARK   84  A    between atoms: _202  and  _203
REMARK   85  A    between atoms: _202  and  _205
REMARK   86  A    between atoms: _205  and  _206
REMARK   87  A    between atoms: _212  and  _214
REMARK   88  A    between atoms: _214  and  _215
REMARK   89  A    between atoms: _214  and  _217
REMARK   90  A    between atoms: _217  and  _218
REMARK   91  A    between atoms: _221  and  _223
REMARK   92  A    between atoms: _223  and  _224
REMARK   93  A    between atoms: _223  and  _226
REMARK   94  A    between atoms: _226  and  _227
REMARK   95  A    between atoms: _230  and  _232
REMARK   96  A    between atoms: _232  and  _233
REMARK   97  A    between atoms: _235  and  _237
REMARK   98  A    between atoms: _237  and  _238
REMARK   99  A    between atoms: _237  and  _240
REMARK  100  A    between atoms: _240  and  _241
REMARK  101  A    between atoms: _251  and  _253
REMARK  102  A    between atoms: _253  and  _254
REMARK  103  A    between atoms: _256  and  _258
REMARK  104  A    between atoms: _258  and  _259
REMARK  105  A    between atoms: _258  and  _261
REMARK  106  A    between atoms: _261  and  _262
REMARK  107  A    between atoms: _267  and  _269
REMARK  108  A    between atoms: _269  and  _270
REMARK  109  A    between atoms: _269  and  _272
REMARK  110  A    between atoms: _275  and  _277
REMARK  111  A    between atoms: _277  and  _278
REMARK  112  A    between atoms: _277  and  _280
REMARK  113  A    between atoms: _280  and  _281
REMARK  114  A    between atoms: _291  and  _293
REMARK  115  A    between atoms: _293  and  _294
REMARK  116  A    between atoms: _293  and  _296
REMARK  117  A    between atoms: _296  and  _297
REMARK  118  A    between atoms: _303  and  _305
REMARK  119  A    between atoms: _316  and  _317
REMARK                            x       y       z     vdW  Elec       q    Type
REMARK                         _______ _______ _______ _____ _____    ______ ____
ROOT
ATOM      1  C   UNL     1     -77.037 -13.923  41.817  0.00  0.00    +0.000 A 
ATOM      2  C   UNL     1     -77.098 -12.696  42.389  0.00  0.00    +0.000 A 
ATOM      3  N   UNL     1     -76.874 -11.774  41.396  0.00  0.00    +0.000 N 
ATOM      4  C   UNL     1     -76.691 -12.411  40.252  0.00  0.00    +0.000 A 
ATOM      5  N   UNL     1     -76.784 -13.711  40.479  0.00  0.00    +0.000 NA
ENDROOT
BRANCH   3   6
ATOM      6 NI   UNL     1     -76.552  -9.818  41.856  0.00  0.00    +0.000 Ni
ATOM      7  N   UNL     1     -75.651 -10.260  43.821  0.00  0.00    +0.000 N 
ATOM      8  C   UNL     1     -75.456  -9.566  44.930  0.00  0.00    +0.000 A 
ATOM      9  N   UNL     1     -74.412 -10.075  45.562  0.00  0.00    +0.000 NA
ATOM     10  C   UNL     1     -73.912 -11.137  44.835  0.00  0.00    +0.000 A 
ATOM     11  C   UNL     1     -72.740 -11.950  45.280  0.00  0.00    +0.000 C 
ATOM     12  CA  UNL     1     -71.389 -11.222  45.188  0.00  0.00    +0.000 C 
ATOM     13  N   UNL     1     -71.003 -10.937  43.790  0.00  0.00    +0.000 N 
ATOM     14  H   UNL     1     -70.824  -9.946  43.529  0.00  0.00    +0.000 HD
ATOM     15  C   UNL     1     -70.869 -11.866  42.839  0.00  0.00    +0.000 C 
ATOM     16  O   UNL     1     -71.127 -13.060  43.016  0.00  0.00    +0.000 OA
ATOM     17  CA  UNL     1     -70.333 -11.379  41.481  0.00  0.00    +0.000 C 
ATOM     18  C   UNL     1     -71.449 -11.272  40.429  0.00  0.00    +0.000 C 
ATOM     19  C   UNL     1     -72.615 -10.438  40.845  0.00  0.00    +0.000 A 
ATOM     20  N   UNL     1     -72.478  -9.180  41.387  0.00  0.00    +0.000 NA
ATOM     21  C   UNL     1     -73.673  -8.679  41.644  0.00  0.00    +0.000 A 
ATOM     22  C   UNL     1     -73.947 -10.663  40.748  0.00  0.00    +0.000 A 
ATOM     23  C   UNL     1     -74.702 -11.251  43.742  0.00  0.00    +0.000 A 
ATOM     24  N   UNL     1     -74.584  -9.554  41.253  0.00  0.00    +0.000 N 
BRANCH  12  25
ATOM     25  C   UNL     1     -70.350 -12.059  45.935  0.00  0.00    +0.000 C 
ATOM     26  O   UNL     1     -70.610 -12.533  47.042  0.00  0.00    +0.000 OA
ENDBRANCH  12  25
BRANCH  17  27
ATOM     27  N   UNL     1     -69.299 -12.265  40.956  0.00  0.00    +0.000 NA
ATOM     28  H   UNL     1     -69.437 -12.666  40.006  0.00  0.00    +0.000 HD
ENDBRANCH  17  27
ENDBRANCH   3   6
BRANCH   1  29
ATOM     29  C   UNL     1     -77.211 -15.291  42.404  0.00  0.00    +0.000 C 
BRANCH  29  30
ATOM     30  CA  UNL     1     -75.905 -16.066  42.583  0.00  0.00    +0.000 C 
BRANCH  30  32
ATOM     31  C   UNL     1     -74.469 -16.427  40.658  0.00  0.00    +0.000 C 
ATOM     32  N   UNL     1     -75.545 -16.768  41.357  0.00  0.00    +0.000 N 
ATOM     33  H   UNL     1     -76.143 -17.551  41.024  0.00  0.00    +0.000 HD
ATOM     34  O   UNL     1     -73.720 -15.511  40.997  0.00  0.00    +0.000 OA
BRANCH  31  35
ATOM     35  CA  UNL     1     -74.195 -17.230  39.382  0.00  0.00    +0.000 C 
BRANCH  35  37
ATOM     36  C   UNL     1     -76.429 -16.884  38.444  0.00  0.00    +0.000 C 
ATOM     37  N   UNL     1     -75.418 -17.701  38.737  0.00  0.00    +0.000 N 
ATOM     38  H   UNL     1     -75.503 -18.710  38.498  0.00  0.00    +0.000 HD
ATOM     39  O   UNL     1     -76.416 -15.676  38.679  0.00  0.00    +0.000 OA
BRANCH  36  40
ATOM     40  CA  UNL     1     -77.646 -17.530  37.809  0.00  0.00    +0.000 C 
BRANCH  40  41
ATOM     41  N   UNL     1     -77.736 -18.922  38.200  0.00  0.00    +0.000 NA
ATOM     42  H   UNL     1     -77.683 -19.175  39.207  0.00  0.00    +0.000 HD
ENDBRANCH  40  41
BRANCH  40  43
ATOM     43  CB  UNL     1     -78.915 -16.801  38.225  0.00  0.00    +0.000 C 
BRANCH  43  44
ATOM     44  CG  UNL     1     -80.151 -17.254  37.475  0.00  0.00    +0.000 C 
BRANCH  44  45
ATOM     45  CD  UNL     1     -81.420 -16.680  38.068  0.00  0.00    +0.000 C 
ATOM     46  OE2 UNL     1     -81.395 -16.271  39.246  0.00  0.00    +0.000 OA
ATOM     47  OE1 UNL     1     -82.446 -16.639  37.362  0.00  0.00    +0.000 OA
ENDBRANCH  44  45
ENDBRANCH  43  44
ENDBRANCH  40  43
ENDBRANCH  36  40
ENDBRANCH  35  37
BRANCH  35  48
ATOM     48  CB  UNL     1     -73.367 -16.386  38.413  0.00  0.00    +0.000 C 
BRANCH  48  49
ATOM     49  CG  UNL     1     -72.823 -17.196  37.250  0.00  0.00    +0.000 C 
ATOM     50  OD2 UNL     1     -72.616 -18.417  37.417  0.00  0.00    +0.000 OA
ATOM     51  OD1 UNL     1     -72.584 -16.605  36.176  0.00  0.00    +0.000 OA
ENDBRANCH  48  49
ENDBRANCH  35  48
ENDBRANCH  31  35
ENDBRANCH  30  32
BRANCH  30  52
ATOM     52  C   UNL     1     -76.052 -17.025  43.754  0.00  0.00    +0.000 C 
ATOM     53  O   UNL     1     -76.842 -16.773  44.654  0.00  0.00    +0.000 OA
ENDBRANCH  30  52
ENDBRANCH  29  30
ENDBRANCH   1  29
TORSDOF 16
REMARK  Name = ../refined-set-2016/4oeu/4oeu_pocket.pdb
REMARK  119 active torsions:
REMARK  status: ('A' for Active; 'I' for Inactive)
REMARK    1  A    between atoms: _1  and  _3
REMARK    2  A    between atoms: _3  and  _4
REMARK    3  A    between atoms: _3  and  _6
REMARK    4  A    between atoms: _6  and  _7
REMARK    5  A    between atoms: _7  and  _8
REMARK    6  A    between atoms: _11  and  _13
REMARK    7  A    between atoms: _13  and  _14
REMARK    8  A    between atoms: _13  and  _16
REMARK    9  A    between atoms: _16  and  _17
REMARK   10  A    between atoms: _22  and  _24
REMARK   11  A    between atoms: _24  and  _25
REMARK   12  A    between atoms: _24  and  _27
REMARK   13  A    between atoms: _27  and  _28
REMARK   14  A    between atoms: _28  and  _29
REMARK   15  A    between atoms: _32  and  _34
REMARK   16  A    between atoms: _34  and  _35
REMARK   17  A    between atoms: _34  and  _37
REMARK   18  A    between atoms: _37  and  _38
REMARK   19  A    between atoms: _38  and  _39
REMARK   20  A    between atoms: _42  and  _44
REMARK   21  A    between atoms: _44  and  _45
REMARK   22  A    between atoms: _44  and  _47
REMARK   23  A    between atoms: _47  and  _48
REMARK   24  A    between atoms: _51  and  _53
REMARK   25  A    between atoms: _53  and  _54
REMARK   26  A    between atoms: _53  and  _56
REMARK   27  A    between atoms: _56  and  _57
REMARK   28  A    between atoms: _61  and  NI_325
REMARK   29  A    between atoms: _62  and  _64
REMARK   30  A    between atoms: _64  and  _65
REMARK   31  A    between atoms: _64  and  _67
REMARK   32  A    between atoms: _67  and  _68
REMARK   33  A    between atoms: _71  and  _73
REMARK   34  A    between atoms: _73  and  _74
REMARK   35  A    between atoms: _73  and  _76
REMARK   36  A    between atoms: _76  and  _77
REMARK   37  A    between atoms: _82  and  _83
REMARK   38  A    between atoms: _85  and  _87
REMARK   39  A    between atoms: _87  and  _88
REMARK   40  A    between atoms: _87  and  _90
REMARK   41  A    between atoms: _90  and  _91
REMARK   42  A    between atoms: _91  and  _92
REMARK   43  A    between atoms: _92  and  _93
REMARK   44  A    between atoms: _102  and  _104
REMARK   45  A    between atoms: _104  and  _105
REMARK   46  A    between atoms: _108  and  _110
REMARK   47  A    between atoms: _110  and  _111
REMARK   48  A    between atoms: _110  and  _113
REMARK   49  A    between atoms: _113  and  _114
REMARK   50  A    between atoms: _114  and  _115
REMARK   51  A    between atoms: _117  and  _119
REMARK   52  A    between atoms: _119  and  _120
REMARK   53  A    between atoms: _119  and  _122
REMARK   54  A    between atoms: _122  and  _123
REMARK   55  A    between atoms: _123  and  _124
REMARK   56  A    between atoms: _126  and  _128
REMARK   57  A    between atoms: _128  and  _129
REMARK   58  A    between atoms: _128  and  _131
REMARK   59  A    between atoms: _131  and  _132
REMARK   60  A    between atoms: _137  and  _139
REMARK   61  A    between atoms: _139  and  _140
REMARK   62  A    between atoms: _139  and  _142
REMARK   63  A    between atoms: _142  and  _143
REMARK   64  A    between atoms: _146  and  _148
REMARK   65  A    between atoms: _148  and  _149
REMARK   66  A    between atoms: _148  and  _151
REMARK   67  A    between atoms: _151  and  _152
REMARK   68  A    between atoms: _152  and  _153
REMARK   69  A    between atoms: _153  and  _154
REMARK   70  A    between atoms: _163  and  _165
REMARK   71  A    between atoms: _165  and  _166
REMARK   72  A    between atoms: _169  and  _171
REMARK   73  A    between atoms: _171  and  _172
REMARK   74  A    between atoms: _174  and  _176
REMARK   75  A    between atoms: _176  and  _177
REMARK   76  A    between atoms: _176  and  _179
REMARK   77  A    between atoms: _179  and  _180
REMARK   78  A    between atoms: _186  and  _188
REMARK   79  A    between atoms: _188  and  _189
REMARK   80  A    between atoms: _188  and  _191
REMARK   81  A    between atoms: _191  and  _192
REMARK   82  A    between atoms: _197  and  _198
REMARK   83  A    between atoms: _200  and  _202
REMARK   84  A    between atoms: _202  and  _203
REMARK   85  A    between atoms: _202  and  _205
REMARK   86  A    between atoms: _205  and  _206
REMARK   87  A    between atoms: _212  and  _214
REMARK   88  A    between atoms: _214  and  _215
REMARK   89  A    between atoms: _214  and  _217
REMARK   90  A    between atoms: _217  and  _218
REMARK   91  A    between atoms: _221  and  _223
REMARK   92  A    between atoms: _223  and  _224
REMARK   93  A    between atoms: _223  and  _226
REMARK   94  A    between atoms: _226  and  _227
REMARK   95  A    between atoms: _230  and  _232
REMARK   96  A    between atoms: _232  and  _233
REMARK   97  A    between atoms: _235  and  _237
REMARK   98  A    between atoms: _237  and  _238
REMARK   99  A    between atoms: _237  and  _240
REMARK  100  A    between atoms: _240  and  _241
REMARK  101  A    between atoms: _251  and  _253
REMARK  102  A    between atoms: _253  and  _254
REMARK  103  A    between atoms: _256  and  _258
REMARK  104  A    between atoms: _258  and  _259
REMARK  105  A    between atoms: _258  and  _261
REMARK  106  A    between atoms: _261  and  _262
REMARK  107  A    between atoms: _267  and  _269
REMARK  108  A    between atoms: _269  and  _270
REMARK  109  A    between atoms: _269  and  _272
REMARK  110  A    between atoms: _275  and  _277
REMARK  111  A    between atoms: _277  and  _278
REMARK  112  A    between atoms: _277  and  _280
REMARK  113  A    between atoms: _280  and  _281
REMARK  114  A    between atoms: _291  and  _293
REMARK  115  A    between atoms: _293  and  _294
REMARK  116  A    between atoms: _293  and  _296
REMARK  117  A    between atoms: _296  and  _297
REMARK  118  A    between atoms: _303  and  _305
REMARK  119  A    between atoms: _316  and  _317
REMARK                            x       y       z     vdW  Elec       q    Type
REMARK                         _______ _______ _______ _____ _____    ______ ____
ROOT
ATOM      1  C   TYR A   2     -69.654  -3.767  40.375  0.00  0.00    +0.241 C 
ATOM      2  N   ARG A   3     -69.673  -2.538  40.880  0.00  0.00    -0.297 N 
ATOM      3  H   ARG A   3     -68.775  -2.041  41.050  0.00  0.00    +0.150 HD
ATOM      4  O   TYR A   2     -70.672  -4.461  40.264  0.00  0.00    -0.273 OA
ENDROOT
BRANCH   2   5
ATOM      5  CA  ARG A   3     -70.930  -1.875  41.199  0.00  0.00    +0.149 C 
BRANCH   5   6
ATOM      6  C   ARG A   3     -71.132  -0.755  40.193  0.00  0.00    +0.241 C 
ATOM      7  N   ALA A   4     -72.391  -0.465  39.895  0.00  0.00    -0.298 N 
ATOM      8  H   ALA A   4     -73.158  -0.980  40.372  0.00  0.00    +0.150 HD
ATOM      9  O   ARG A   3     -70.165  -0.176  39.689  0.00  0.00    -0.273 OA
BRANCH   7  10
ATOM     10  CA  ALA A   4     -72.722   0.556  38.917  0.00  0.00    +0.137 C 
ATOM     11  CB  ALA A   4     -72.559   0.012  37.496  0.00  0.00    +0.030 C 
BRANCH  10  12
ATOM     12  C   ALA A   4     -74.142   1.053  39.136  0.00  0.00    +0.227 C 
ATOM     13  O   ALA A   4     -74.905   0.467  39.908  0.00  0.00    -0.286 OA
ENDBRANCH  10  12
ENDBRANCH   7  10
ENDBRANCH   5   6
BRANCH   5  14
ATOM     14  CB  ARG A   3     -70.938  -1.325  42.635  0.00  0.00    +0.033 C 
BRANCH  14  15
ATOM     15  CG  ARG A   3     -70.863  -2.391  43.713  0.00  0.00    +0.045 C 
BRANCH  15  16
ATOM     16  CD  ARG A   3     -72.201  -3.114  43.878  0.00  0.00    +0.174 C 
BRANCH  16  17
ATOM     17  NE  ARG A   3     -72.044  -4.355  44.630  0.00  0.00    -0.265 N 
ATOM     18  HE  ARG A   3     -72.271  -4.350  45.645  0.00  0.00    +0.259 HD
ATOM     19  CZ  ARG A   3     -71.625  -5.493  44.081  0.00  0.00    +0.342 C 
ATOM     20  NH2 ARG A   3     -71.502  -6.591  44.815  0.00  0.00    -0.292 N 
ATOM     21 HH21 ARG A   3     -71.734  -6.568  45.829  0.00  0.00    +0.255 HD
ATOM     22 HH22 ARG A   3     -71.174  -7.475  44.377  0.00  0.00    +0.255 HD
ATOM     23  NH1 ARG A   3     -71.341  -5.534  42.786  0.00  0.00    -0.292 N 
ATOM     24 HH11 ARG A   3     -71.013  -6.421  42.353  0.00  0.00    +0.255 HD
ATOM     25 HH12 ARG A   3     -71.446  -4.679  42.203  0.00  0.00    +0.255 HD
ENDBRANCH  16  17
ENDBRANCH  15  16
ENDBRANCH  14  15
ENDBRANCH   5  14
ENDBRANCH   2   5
BRANCH   1  26
ATOM     26  CA  TYR A   2     -68.290  -4.292  39.923  0.00  0.00    +0.153 C 
BRANCH  26  29
ATOM     27  C   ASP A   1     -67.366  -6.399  40.656  0.00  0.00    +0.239 C 
ATOM     28  O   ASP A   1     -66.461  -5.825  41.265  0.00  0.00    -0.274 OA
ATOM     29  N   TYR A   2     -68.254  -5.748  39.913  0.00  0.00    -0.297 N 
ATOM     30  H   TYR A   2     -68.925  -6.279  39.323  0.00  0.00    +0.150 HD
BRANCH  27  31
ATOM     31  CA  ASP A   1     -67.495  -7.914  40.716  0.00  0.00    +0.156 C 
BRANCH  31  32
ATOM     32  N   ASP A   1     -66.235  -8.573  40.366  0.00  0.00    -0.238 NA
ATOM     33  H   ASP A   1     -65.683  -9.043  41.112  0.00  0.00    +0.142 HD
ENDBRANCH  31  32
BRANCH  31  34
ATOM     34  CB  ASP A   1     -67.951  -8.330  42.119  0.00  0.00    +0.140 C 
BRANCH  34  35
ATOM     35  CG  ASP A   1     -69.400  -7.973  42.398  0.00  0.00    +0.367 C 
ATOM     36  OD2 ASP A   1     -69.813  -8.078  43.572  0.00  0.00    -0.246 OA
ATOM     37  OD1 ASP A   1     -70.132  -7.583  41.461  0.00  0.00    -0.246 OA
ENDBRANCH  34  35
ENDBRANCH  31  34
ENDBRANCH  27  31
ENDBRANCH  26  29
BRANCH  26  38
ATOM     38  CB  TYR A   2     -67.946  -3.733  38.539  0.00  0.00    +0.055 C 
BRANCH  38  39
ATOM     39  CG  TYR A   2     -68.922  -4.115  37.451  0.00  0.00    -0.020 A 
ATOM     40  CD2 TYR A   2     -70.062  -3.356  37.218  0.00  0.00    -0.001 A 
ATOM     41  CE2 TYR A   2     -70.949  -3.690  36.228  0.00  0.00    +0.036 A 
ATOM     42  CZ  TYR A   2     -70.709  -4.793  35.442  0.00  0.00    +0.134 A 
ATOM     43  CE1 TYR A   2     -69.580  -5.563  35.639  0.00  0.00    +0.036 A 
ATOM     44  CD1 TYR A   2     -68.691  -5.216  36.641  0.00  0.00    -0.001 A 
BRANCH  42  45
ATOM     45  OH  TYR A   2     -71.608  -5.117  34.453  0.00  0.00    -0.506 OA
ATOM     46  HH  TYR A   2     -71.967  -6.025  34.619  0.00  0.00    +0.292 HD
ENDBRANCH  42  45
ENDBRANCH  38  39
ENDBRANCH  26  38
ENDBRANCH   1  26
TORSDOF 17
REMARK  Name = ../refined-set-2016/4oeu/4oeu_pocket.pdb
REMARK  119 active torsions:
REMARK  status: ('A' for Active; 'I' for Inactive)
REMARK    1  A    between atoms: _1  and  _3
REMARK    2  A    between atoms: _3  and  _4
REMARK    3  A    between atoms: _3  and  _6
REMARK    4  A    between atoms: _6  and  _7
REMARK    5  A    between atoms: _7  and  _8
REMARK    6  A    between atoms: _11  and  _13
REMARK    7  A    between atoms: _13  and  _14
REMARK    8  A    between atoms: _13  and  _16
REMARK    9  A    between atoms: _16  and  _17
REMARK   10  A    between atoms: _22  and  _24
REMARK   11  A    between atoms: _24  and  _25
REMARK   12  A    between atoms: _24  and  _27
REMARK   13  A    between atoms: _27  and  _28
REMARK   14  A    between atoms: _28  and  _29
REMARK   15  A    between atoms: _32  and  _34
REMARK   16  A    between atoms: _34  and  _35
REMARK   17  A    between atoms: _34  and  _37
REMARK   18  A    between atoms: _37  and  _38
REMARK   19  A    between atoms: _38  and  _39
REMARK   20  A    between atoms: _42  and  _44
REMARK   21  A    between atoms: _44  and  _45
REMARK   22  A    between atoms: _44  and  _47
REMARK   23  A    between atoms: _47  and  _48
REMARK   24  A    between atoms: _51  and  _53
REMARK   25  A    between atoms: _53  and  _54
REMARK   26  A    between atoms: _53  and  _56
REMARK   27  A    between atoms: _56  and  _57
REMARK   28  A    between atoms: _61  and  NI_325
REMARK   29  A    between atoms: _62  and  _64
REMARK   30  A    between atoms: _64  and  _65
REMARK   31  A    between atoms: _64  and  _67
REMARK   32  A    between atoms: _67  and  _68
REMARK   33  A    between atoms: _71  and  _73
REMARK   34  A    between atoms: _73  and  _74
REMARK   35  A    between atoms: _73  and  _76
REMARK   36  A    between atoms: _76  and  _77
REMARK   37  A    between atoms: _82  and  _83
REMARK   38  A    between atoms: _85  and  _87
REMARK   39  A    between atoms: _87  and  _88
REMARK   40  A    between atoms: _87  and  _90
REMARK   41  A    between atoms: _90  and  _91
REMARK   42  A    between atoms: _91  and  _92
REMARK   43  A    between atoms: _92  and  _93
REMARK   44  A    between atoms: _102  and  _104
REMARK   45  A    between atoms: _104  and  _105
REMARK   46  A    between atoms: _108  and  _110
REMARK   47  A    between atoms: _110  and  _111
REMARK   48  A    between atoms: _110  and  _113
REMARK   49  A    between atoms: _113  and  _114
REMARK   50  A    between atoms: _114  and  _115
REMARK   51  A    between atoms: _117  and  _119
REMARK   52  A    between atoms: _119  and  _120
REMARK   53  A    between atoms: _119  and  _122
REMARK   54  A    between atoms: _122  and  _123
REMARK   55  A    between atoms: _123  and  _124
REMARK   56  A    between atoms: _126  and  _128
REMARK   57  A    between atoms: _128  and  _129
REMARK   58  A    between atoms: _128  and  _131
REMARK   59  A    between atoms: _131  and  _132
REMARK   60  A    between atoms: _137  and  _139
REMARK   61  A    between atoms: _139  and  _140
REMARK   62  A    between atoms: _139  and  _142
REMARK   63  A    between atoms: _142  and  _143
REMARK   64  A    between atoms: _146  and  _148
REMARK   65  A    between atoms: _148  and  _149
REMARK   66  A    between atoms: _148  and  _151
REMARK   67  A    between atoms: _151  and  _152
REMARK   68  A    between atoms: _152  and  _153
REMARK   69  A    between atoms: _153  and  _154
REMARK   70  A    between atoms: _163  and  _165
REMARK   71  A    between atoms: _165  and  _166
REMARK   72  A    between atoms: _169  and  _171
REMARK   73  A    between atoms: _171  and  _172
REMARK   74  A    between atoms: _174  and  _176
REMARK   75  A    between atoms: _176  and  _177
REMARK   76  A    between atoms: _176  and  _179
REMARK   77  A    between atoms: _179  and  _180
REMARK   78  A    between atoms: _186  and  _188
REMARK   79  A    between atoms: _188  and  _189
REMARK   80  A    between atoms: _188  and  _191
REMARK   81  A    between atoms: _191  and  _192
REMARK   82  A    between atoms: _197  and  _198
REMARK   83  A    between atoms: _200  and  _202
REMARK   84  A    between atoms: _202  and  _203
REMARK   85  A    between atoms: _202  and  _205
REMARK   86  A    between atoms: _205  and  _206
REMARK   87  A    between atoms: _212  and  _214
REMARK   88  A    between atoms: _214  and  _215
REMARK   89  A    between atoms: _214  and  _217
REMARK   90  A    between atoms: _217  and  _218
REMARK   91  A    between atoms: _221  and  _223
REMARK   92  A    between atoms: _223  and  _224
REMARK   93  A    between atoms: _223  and  _226
REMARK   94  A    between atoms: _226  and  _227
REMARK   95  A    between atoms: _230  and  _232
REMARK   96  A    between atoms: _232  and  _233
REMARK   97  A    between atoms: _235  and  _237
REMARK   98  A    between atoms: _237  and  _238
REMARK   99  A    between atoms: _237  and  _240
REMARK  100  A    between atoms: _240  and  _241
REMARK  101  A    between atoms: _251  and  _253
REMARK  102  A    between atoms: _253  and  _254
REMARK  103  A    between atoms: _256  and  _258
REMARK  104  A    between atoms: _258  and  _259
REMARK  105  A    between atoms: _258  and  _261
REMARK  106  A    between atoms: _261  and  _262
REMARK  107  A    between atoms: _267  and  _269
REMARK  108  A    between atoms: _269  and  _270
REMARK  109  A    between atoms: _269  and  _272
REMARK  110  A    between atoms: _275  and  _277
REMARK  111  A    between atoms: _277  and  _278
REMARK  112  A    between atoms: _277  and  _280
REMARK  113  A    between atoms: _280  and  _281
REMARK  114  A    between atoms: _291  and  _293
REMARK  115  A    between atoms: _293  and  _294
REMARK  116  A    between atoms: _293  and  _296
REMARK  117  A    between atoms: _296  and  _297
REMARK  118  A    between atoms: _303  and  _305
REMARK  119  A    between atoms: _316  and  _317
REMARK                            x       y       z     vdW  Elec       q    Type
REMARK                         _______ _______ _______ _____ _____    ______ ____
ROOT
ATOM      1  CA  MET A   1     -78.272   0.869  36.076  0.00  0.00    +0.134 C 
ENDROOT
BRANCH   1   2
ATOM      2  N   MET A   1     -77.544   1.330  37.249  0.00  0.00    -0.239 NA
ATOM      3  H   MET A   1     -77.835   1.002  38.192  0.00  0.00    +0.142 HD
ENDBRANCH   1   2
BRANCH   1   4
ATOM      4  C   MET A   1     -79.304   1.900  35.659  0.00  0.00    +0.224 C 
ATOM      5  O   MET A   1     -80.227   2.201  36.415  0.00  0.00    -0.287 OA
ENDBRANCH   1   4
BRANCH   1   6
ATOM      6  CB  MET A   1     -78.970  -0.467  36.359  0.00  0.00    +0.037 C 
BRANCH   6   7
ATOM      7  CG  MET A   1     -79.909  -0.931  35.245  0.00  0.00    +0.059 C 
BRANCH   7   8
ATOM      8  SD  MET A   1     -81.288  -1.953  35.846  0.00  0.00    -0.139 S 
ATOM      9  CE  MET A   1     -82.473  -0.667  36.249  0.00  0.00    +0.069 C 
ENDBRANCH   7   8
ENDBRANCH   6   7
ENDBRANCH   1   6
TORSDOF 5
REMARK  Name = ../refined-set-2016/4oeu/4oeu_pocket.pdb
REMARK  119 active torsions:
REMARK  status: ('A' for Active; 'I' for Inactive)
REMARK    1  A    between atoms: _1  and  _3
REMARK    2  A    between atoms: _3  and  _4
REMARK    3  A    between atoms: _3  and  _6
REMARK    4  A    between atoms: _6  and  _7
REMARK    5  A    between atoms: _7  and  _8
REMARK    6  A    between atoms: _11  and  _13
REMARK    7  A    between atoms: _13  and  _14
REMARK    8  A    between atoms: _13  and  _16
REMARK    9  A    between atoms: _16  and  _17
REMARK   10  A    between atoms: _22  and  _24
REMARK   11  A    between atoms: _24  and  _25
REMARK   12  A    between atoms: _24  and  _27
REMARK   13  A    between atoms: _27  and  _28
REMARK   14  A    between atoms: _28  and  _29
REMARK   15  A    between atoms: _32  and  _34
REMARK   16  A    between atoms: _34  and  _35
REMARK   17  A    between atoms: _34  and  _37
REMARK   18  A    between atoms: _37  and  _38
REMARK   19  A    between atoms: _38  and  _39
REMARK   20  A    between atoms: _42  and  _44
REMARK   21  A    between atoms: _44  and  _45
REMARK   22  A    between atoms: _44  and  _47
REMARK   23  A    between atoms: _47  and  _48
REMARK   24  A    between atoms: _51  and  _53
REMARK   25  A    between atoms: _53  and  _54
REMARK   26  A    between atoms: _53  and  _56
REMARK   27  A    between atoms: _56  and  _57
REMARK   28  A    between atoms: _61  and  NI_325
REMARK   29  A    between atoms: _62  and  _64
REMARK   30  A    between atoms: _64  and  _65
REMARK   31  A    between atoms: _64  and  _67
REMARK   32  A    between atoms: _67  and  _68
REMARK   33  A    between atoms: _71  and  _73
REMARK   34  A    between atoms: _73  and  _74
REMARK   35  A    between atoms: _73  and  _76
REMARK   36  A    between atoms: _76  and  _77
REMARK   37  A    between atoms: _82  and  _83
REMARK   38  A    between atoms: _85  and  _87
REMARK   39  A    between atoms: _87  and  _88
REMARK   40  A    between atoms: _87  and  _90
REMARK   41  A    between atoms: _90  and  _91
REMARK   42  A    between atoms: _91  and  _92
REMARK   43  A    between atoms: _92  and  _93
REMARK   44  A    between atoms: _102  and  _104
REMARK   45  A    between atoms: _104  and  _105
REMARK   46  A    between atoms: _108  and  _110
REMARK   47  A    between atoms: _110  and  _111
REMARK   48  A    between atoms: _110  and  _113
REMARK   49  A    between atoms: _113  and  _114
REMARK   50  A    between atoms: _114  and  _115
REMARK   51  A    between atoms: _117  and  _119
REMARK   52  A    between atoms: _119  and  _120
REMARK   53  A    between atoms: _119  and  _122
REMARK   54  A    between atoms: _122  and  _123
REMARK   55  A    between atoms: _123  and  _124
REMARK   56  A    between atoms: _126  and  _128
REMARK   57  A    between atoms: _128  and  _129
REMARK   58  A    between atoms: _128  and  _131
REMARK   59  A    between atoms: _131  and  _132
REMARK   60  A    between atoms: _137  and  _139
REMARK   61  A    between atoms: _139  and  _140
REMARK   62  A    between atoms: _139  and  _142
REMARK   63  A    between atoms: _142  and  _143
REMARK   64  A    between atoms: _146  and  _148
REMARK   65  A    between atoms: _148  and  _149
REMARK   66  A    between atoms: _148  and  _151
REMARK   67  A    between atoms: _151  and  _152
REMARK   68  A    between atoms: _152  and  _153
REMARK   69  A    between atoms: _153  and  _154
REMARK   70  A    between atoms: _163  and  _165
REMARK   71  A    between atoms: _165  and  _166
REMARK   72  A    between atoms: _169  and  _171
REMARK   73  A    between atoms: _171  and  _172
REMARK   74  A    between atoms: _174  and  _176
REMARK   75  A    between atoms: _176  and  _177
REMARK   76  A    between atoms: _176  and  _179
REMARK   77  A    between atoms: _179  and  _180
REMARK   78  A    between atoms: _186  and  _188
REMARK   79  A    between atoms: _188  and  _189
REMARK   80  A    between atoms: _188  and  _191
REMARK   81  A    between atoms: _191  and  _192
REMARK   82  A    between atoms: _197  and  _198
REMARK   83  A    between atoms: _200  and  _202
REMARK   84  A    between atoms: _202  and  _203
REMARK   85  A    between atoms: _202  and  _205
REMARK   86  A    between atoms: _205  and  _206
REMARK   87  A    between atoms: _212  and  _214
REMARK   88  A    between atoms: _214  and  _215
REMARK   89  A    between atoms: _214  and  _217
REMARK   90  A    between atoms: _217  and  _218
REMARK   91  A    between atoms: _221  and  _223
REMARK   92  A    between atoms: _223  and  _224
REMARK   93  A    between atoms: _223  and  _226
REMARK   94  A    between atoms: _226  and  _227
REMARK   95  A    between atoms: _230  and  _232
REMARK   96  A    between atoms: _232  and  _233
REMARK   97  A    between atoms: _235  and  _237
REMARK   98  A    between atoms: _237  and  _238
REMARK   99  A    between atoms: _237  and  _240
REMARK  100  A    between atoms: _240  and  _241
REMARK  101  A    between atoms: _251  and  _253
REMARK  102  A    between atoms: _253  and  _254
REMARK  103  A    between atoms: _256  and  _258
REMARK  104  A    between atoms: _258  and  _259
REMARK  105  A    between atoms: _258  and  _261
REMARK  106  A    between atoms: _261  and  _262
REMARK  107  A    between atoms: _267  and  _269
REMARK  108  A    between atoms: _269  and  _270
REMARK  109  A    between atoms: _269  and  _272
REMARK  110  A    between atoms: _275  and  _277
REMARK  111  A    between atoms: _277  and  _278
REMARK  112  A    between atoms: _277  and  _280
REMARK  113  A    between atoms: _280  and  _281
REMARK  114  A    between atoms: _291  and  _293
REMARK  115  A    between atoms: _293  and  _294
REMARK  116  A    between atoms: _293  and  _296
REMARK  117  A    between atoms: _296  and  _297
REMARK  118  A    between atoms: _303  and  _305
REMARK  119  A    between atoms: _316  and  _317
REMARK                            x       y       z     vdW  Elec       q    Type
REMARK                         _______ _______ _______ _____ _____    ______ ____
ROOT
ATOM      1  CA  MET A   1     -80.898  -2.879  48.385  0.00  0.00    +0.134 C 
ENDROOT
BRANCH   1   2
ATOM      2  N   MET A   1     -80.548  -1.824  47.453  0.00  0.00    -0.239 NA
ATOM      3  H   MET A   1     -79.747  -1.964  46.804  0.00  0.00    +0.142 HD
ENDBRANCH   1   2
BRANCH   1   4
ATOM      4  C   MET A   1     -80.449  -2.464  49.781  0.00  0.00    +0.224 C 
ATOM      5  O   MET A   1     -79.253  -2.309  50.047  0.00  0.00    -0.287 OA
ENDBRANCH   1   4
BRANCH   1   6
ATOM      6  CB  MET A   1     -80.268  -4.210  47.958  0.00  0.00    +0.037 C 
BRANCH   6   7
ATOM      7  CG  MET A   1     -80.726  -4.662  46.567  0.00  0.00    +0.059 C 
BRANCH   7   8
ATOM      8  SD  MET A   1     -79.962  -6.190  45.967  0.00  0.00    -0.139 S 
ATOM      9  CE  MET A   1     -78.313  -6.009  46.637  0.00  0.00    +0.069 C 
ENDBRANCH   7   8
ENDBRANCH   6   7
ENDBRANCH   1   6
TORSDOF 5
REMARK  Name = ../refined-set-2016/4oeu/4oeu_pocket.pdb
REMARK  119 active torsions:
REMARK  status: ('A' for Active; 'I' for Inactive)
REMARK    1  A    between atoms: _1  and  _3
REMARK    2  A    between atoms: _3  and  _4
REMARK    3  A    between atoms: _3  and  _6
REMARK    4  A    between atoms: _6  and  _7
REMARK    5  A    between atoms: _7  and  _8
REMARK    6  A    between atoms: _11  and  _13
REMARK    7  A    between atoms: _13  and  _14
REMARK    8  A    between atoms: _13  and  _16
REMARK    9  A    between atoms: _16  and  _17
REMARK   10  A    between atoms: _22  and  _24
REMARK   11  A    between atoms: _24  and  _25
REMARK   12  A    between atoms: _24  and  _27
REMARK   13  A    between atoms: _27  and  _28
REMARK   14  A    between atoms: _28  and  _29
REMARK   15  A    between atoms: _32  and  _34
REMARK   16  A    between atoms: _34  and  _35
REMARK   17  A    between atoms: _34  and  _37
REMARK   18  A    between atoms: _37  and  _38
REMARK   19  A    between atoms: _38  and  _39
REMARK   20  A    between atoms: _42  and  _44
REMARK   21  A    between atoms: _44  and  _45
REMARK   22  A    between atoms: _44  and  _47
REMARK   23  A    between atoms: _47  and  _48
REMARK   24  A    between atoms: _51  and  _53
REMARK   25  A    between atoms: _53  and  _54
REMARK   26  A    between atoms: _53  and  _56
REMARK   27  A    between atoms: _56  and  _57
REMARK   28  A    between atoms: _61  and  NI_325
REMARK   29  A    between atoms: _62  and  _64
REMARK   30  A    between atoms: _64  and  _65
REMARK   31  A    between atoms: _64  and  _67
REMARK   32  A    between atoms: _67  and  _68
REMARK   33  A    between atoms: _71  and  _73
REMARK   34  A    between atoms: _73  and  _74
REMARK   35  A    between atoms: _73  and  _76
REMARK   36  A    between atoms: _76  and  _77
REMARK   37  A    between atoms: _82  and  _83
REMARK   38  A    between atoms: _85  and  _87
REMARK   39  A    between atoms: _87  and  _88
REMARK   40  A    between atoms: _87  and  _90
REMARK   41  A    between atoms: _90  and  _91
REMARK   42  A    between atoms: _91  and  _92
REMARK   43  A    between atoms: _92  and  _93
REMARK   44  A    between atoms: _102  and  _104
REMARK   45  A    between atoms: _104  and  _105
REMARK   46  A    between atoms: _108  and  _110
REMARK   47  A    between atoms: _110  and  _111
REMARK   48  A    between atoms: _110  and  _113
REMARK   49  A    between atoms: _113  and  _114
REMARK   50  A    between atoms: _114  and  _115
REMARK   51  A    between atoms: _117  and  _119
REMARK   52  A    between atoms: _119  and  _120
REMARK   53  A    between atoms: _119  and  _122
REMARK   54  A    between atoms: _122  and  _123
REMARK   55  A    between atoms: _123  and  _124
REMARK   56  A    between atoms: _126  and  _128
REMARK   57  A    between atoms: _128  and  _129
REMARK   58  A    between atoms: _128  and  _131
REMARK   59  A    between atoms: _131  and  _132
REMARK   60  A    between atoms: _137  and  _139
REMARK   61  A    between atoms: _139  and  _140
REMARK   62  A    between atoms: _139  and  _142
REMARK   63  A    between atoms: _142  and  _143
REMARK   64  A    between atoms: _146  and  _148
REMARK   65  A    between atoms: _148  and  _149
REMARK   66  A    between atoms: _148  and  _151
REMARK   67  A    between atoms: _151  and  _152
REMARK   68  A    between atoms: _152  and  _153
REMARK   69  A    between atoms: _153  and  _154
REMARK   70  A    between atoms: _163  and  _165
REMARK   71  A    between atoms: _165  and  _166
REMARK   72  A    between atoms: _169  and  _171
REMARK   73  A    between atoms: _171  and  _172
REMARK   74  A    between atoms: _174  and  _176
REMARK   75  A    between atoms: _176  and  _177
REMARK   76  A    between atoms: _176  and  _179
REMARK   77  A    between atoms: _179  and  _180
REMARK   78  A    between atoms: _186  and  _188
REMARK   79  A    between atoms: _188  and  _189
REMARK   80  A    between atoms: _188  and  _191
REMARK   81  A    between atoms: _191  and  _192
REMARK   82  A    between atoms: _197  and  _198
REMARK   83  A    between atoms: _200  and  _202
REMARK   84  A    between atoms: _202  and  _203
REMARK   85  A    between atoms: _202  and  _205
REMARK   86  A    between atoms: _205  and  _206
REMARK   87  A    between atoms: _212  and  _214
REMARK   88  A    between atoms: _214  and  _215
REMARK   89  A    between atoms: _214  and  _217
REMARK   90  A    between atoms: _217  and  _218
REMARK   91  A    between atoms: _221  and  _223
REMARK   92  A    between atoms: _223  and  _224
REMARK   93  A    between atoms: _223  and  _226
REMARK   94  A    between atoms: _226  and  _227
REMARK   95  A    between atoms: _230  and  _232
REMARK   96  A    between atoms: _232  and  _233
REMARK   97  A    between atoms: _235  and  _237
REMARK   98  A    between atoms: _237  and  _238
REMARK   99  A    between atoms: _237  and  _240
REMARK  100  A    between atoms: _240  and  _241
REMARK  101  A    between atoms: _251  and  _253
REMARK  102  A    between atoms: _253  and  _254
REMARK  103  A    between atoms: _256  and  _258
REMARK  104  A    between atoms: _258  and  _259
REMARK  105  A    between atoms: _258  and  _261
REMARK  106  A    between atoms: _261  and  _262
REMARK  107  A    between atoms: _267  and  _269
REMARK  108  A    between atoms: _269  and  _270
REMARK  109  A    between atoms: _269  and  _272
REMARK  110  A    between atoms: _275  and  _277
REMARK  111  A    between atoms: _277  and  _278
REMARK  112  A    between atoms: _277  and  _280
REMARK  113  A    between atoms: _280  and  _281
REMARK  114  A    between atoms: _291  and  _293
REMARK  115  A    between atoms: _293  and  _294
REMARK  116  A    between atoms: _293  and  _296
REMARK  117  A    between atoms: _296  and  _297
REMARK  118  A    between atoms: _303  and  _305
REMARK  119  A    between atoms: _316  and  _317
REMARK                            x       y       z     vdW  Elec       q    Type
REMARK                         _______ _______ _______ _____ _____    ______ ____
ROOT
ATOM      1  C   ASN A   1     -78.004  -4.799  52.825  0.00  0.00    +0.239 C 
ATOM      2  O   ASN A   1     -77.180  -5.472  53.441  0.00  0.00    -0.274 OA
ATOM      3  N   ASP A   2     -77.664  -3.991  51.825  0.00  0.00    -0.298 N 
ATOM      4  H   ASP A   2     -78.406  -3.449  51.339  0.00  0.00    +0.150 HD
ENDROOT
BRANCH   1   5
ATOM      5  CA  ASN A   1     -79.491  -4.880  53.180  0.00  0.00    +0.154 C 
BRANCH   5   6
ATOM      6  N   ASN A   1     -80.301  -3.904  52.466  0.00  0.00    -0.238 NA
ATOM      7  H   ASN A   1     -80.862  -4.208  51.644  0.00  0.00    +0.142 HD
ENDBRANCH   5   6
BRANCH   5   8
ATOM      8  CB  ASN A   1     -80.007  -6.292  52.908  0.00  0.00    +0.111 C 
BRANCH   8   9
ATOM      9  CG  ASN A   1     -80.106  -6.599  51.430  0.00  0.00    +0.221 C 
ATOM     10  ND2 ASN A   1     -79.162  -7.385  50.930  0.00  0.00    -0.329 N 
ATOM     11 HD21 ASN A   1     -78.410  -7.752  51.548  0.00  0.00    +0.145 HD
ATOM     12 HD22 ASN A   1     -79.174  -7.634  49.920  0.00  0.00    +0.145 HD
ATOM     13  OD1 ASN A   1     -81.019  -6.137  50.743  0.00  0.00    -0.275 OA
ENDBRANCH   8   9
ENDBRANCH   5   8
ENDBRANCH   1   5
BRANCH   3  14
ATOM     14  CA  ASP A   2     -76.274  -3.844  51.390  0.00  0.00    +0.148 C 
BRANCH  14  15
ATOM     15  C   ASP A   2     -75.803  -2.415  51.619  0.00  0.00    +0.227 C 
ATOM     16  O   ASP A   2     -76.075  -1.531  50.808  0.00  0.00    -0.286 OA
ENDBRANCH  14  15
BRANCH  14  17
ATOM     17  CB  ASP A   2     -76.125  -4.227  49.914  0.00  0.00    +0.142 C 
BRANCH  17  18
ATOM     18  CG  ASP A   2     -74.669  -4.337  49.473  0.00  0.00    +0.367 C 
ATOM     19  OD2 ASP A   2     -73.797  -3.660  50.062  0.00  0.00    -0.246 OA
ATOM     20  OD1 ASP A   2     -74.396  -5.097  48.516  0.00  0.00    -0.246 OA
ENDBRANCH  17  18
ENDBRANCH  14  17
ENDBRANCH   3  14
TORSDOF 8
REMARK  Name = ../refined-set-2016/4oeu/4oeu_pocket.pdb
REMARK  119 active torsions:
REMARK  status: ('A' for Active; 'I' for Inactive)
REMARK    1  A    between atoms: _1  and  _3
REMARK    2  A    between atoms: _3  and  _4
REMARK    3  A    between atoms: _3  and  _6
REMARK    4  A    between atoms: _6  and  _7
REMARK    5  A    between atoms: _7  and  _8
REMARK    6  A    between atoms: _11  and  _13
REMARK    7  A    between atoms: _13  and  _14
REMARK    8  A    between atoms: _13  and  _16
REMARK    9  A    between atoms: _16  and  _17
REMARK   10  A    between atoms: _22  and  _24
REMARK   11  A    between atoms: _24  and  _25
REMARK   12  A    between atoms: _24  and  _27
REMARK   13  A    between atoms: _27  and  _28
REMARK   14  A    between atoms: _28  and  _29
REMARK   15  A    between atoms: _32  and  _34
REMARK   16  A    between atoms: _34  and  _35
REMARK   17  A    between atoms: _34  and  _37
REMARK   18  A    between atoms: _37  and  _38
REMARK   19  A    between atoms: _38  and  _39
REMARK   20  A    between atoms: _42  and  _44
REMARK   21  A    between atoms: _44  and  _45
REMARK   22  A    between atoms: _44  and  _47
REMARK   23  A    between atoms: _47  and  _48
REMARK   24  A    between atoms: _51  and  _53
REMARK   25  A    between atoms: _53  and  _54
REMARK   26  A    between atoms: _53  and  _56
REMARK   27  A    between atoms: _56  and  _57
REMARK   28  A    between atoms: _61  and  NI_325
REMARK   29  A    between atoms: _62  and  _64
REMARK   30  A    between atoms: _64  and  _65
REMARK   31  A    between atoms: _64  and  _67
REMARK   32  A    between atoms: _67  and  _68
REMARK   33  A    between atoms: _71  and  _73
REMARK   34  A    between atoms: _73  and  _74
REMARK   35  A    between atoms: _73  and  _76
REMARK   36  A    between atoms: _76  and  _77
REMARK   37  A    between atoms: _82  and  _83
REMARK   38  A    between atoms: _85  and  _87
REMARK   39  A    between atoms: _87  and  _88
REMARK   40  A    between atoms: _87  and  _90
REMARK   41  A    between atoms: _90  and  _91
REMARK   42  A    between atoms: _91  and  _92
REMARK   43  A    between atoms: _92  and  _93
REMARK   44  A    between atoms: _102  and  _104
REMARK   45  A    between atoms: _104  and  _105
REMARK   46  A    between atoms: _108  and  _110
REMARK   47  A    between atoms: _110  and  _111
REMARK   48  A    between atoms: _110  and  _113
REMARK   49  A    between atoms: _113  and  _114
REMARK   50  A    between atoms: _114  and  _115
REMARK   51  A    between atoms: _117  and  _119
REMARK   52  A    between atoms: _119  and  _120
REMARK   53  A    between atoms: _119  and  _122
REMARK   54  A    between atoms: _122  and  _123
REMARK   55  A    between atoms: _123  and  _124
REMARK   56  A    between atoms: _126  and  _128
REMARK   57  A    between atoms: _128  and  _129
REMARK   58  A    between atoms: _128  and  _131
REMARK   59  A    between atoms: _131  and  _132
REMARK   60  A    between atoms: _137  and  _139
REMARK   61  A    between atoms: _139  and  _140
REMARK   62  A    between atoms: _139  and  _142
REMARK   63  A    between atoms: _142  and  _143
REMARK   64  A    between atoms: _146  and  _148
REMARK   65  A    between atoms: _148  and  _149
REMARK   66  A    between atoms: _148  and  _151
REMARK   67  A    between atoms: _151  and  _152
REMARK   68  A    between atoms: _152  and  _153
REMARK   69  A    between atoms: _153  and  _154
REMARK   70  A    between atoms: _163  and  _165
REMARK   71  A    between atoms: _165  and  _166
REMARK   72  A    between atoms: _169  and  _171
REMARK   73  A    between atoms: _171  and  _172
REMARK   74  A    between atoms: _174  and  _176
REMARK   75  A    between atoms: _176  and  _177
REMARK   76  A    between atoms: _176  and  _179
REMARK   77  A    between atoms: _179  and  _180
REMARK   78  A    between atoms: _186  and  _188
REMARK   79  A    between atoms: _188  and  _189
REMARK   80  A    between atoms: _188  and  _191
REMARK   81  A    between atoms: _191  and  _192
REMARK   82  A    between atoms: _197  and  _198
REMARK   83  A    between atoms: _200  and  _202
REMARK   84  A    between atoms: _202  and  _203
REMARK   85  A    between atoms: _202  and  _205
REMARK   86  A    between atoms: _205  and  _206
REMARK   87  A    between atoms: _212  and  _214
REMARK   88  A    between atoms: _214  and  _215
REMARK   89  A    between atoms: _214  and  _217
REMARK   90  A    between atoms: _217  and  _218
REMARK   91  A    between atoms: _221  and  _223
REMARK   92  A    between atoms: _223  and  _224
REMARK   93  A    between atoms: _223  and  _226
REMARK   94  A    between atoms: _226  and  _227
REMARK   95  A    between atoms: _230  and  _232
REMARK   96  A    between atoms: _232  and  _233
REMARK   97  A    between atoms: _235  and  _237
REMARK   98  A    between atoms: _237  and  _238
REMARK   99  A    between atoms: _237  and  _240
REMARK  100  A    between atoms: _240  and  _241
REMARK  101  A    between atoms: _251  and  _253
REMARK  102  A    between atoms: _253  and  _254
REMARK  103  A    between atoms: _256  and  _258
REMARK  104  A    between atoms: _258  and  _259
REMARK  105  A    between atoms: _258  and  _261
REMARK  106  A    between atoms: _261  and  _262
REMARK  107  A    between atoms: _267  and  _269
REMARK  108  A    between atoms: _269  and  _270
REMARK  109  A    between atoms: _269  and  _272
REMARK  110  A    between atoms: _275  and  _277
REMARK  111  A    between atoms: _277  and  _278
REMARK  112  A    between atoms: _277  and  _280
REMARK  113  A    between atoms: _280  and  _281
REMARK  114  A    between atoms: _291  and  _293
REMARK  115  A    between atoms: _293  and  _294
REMARK  116  A    between atoms: _293  and  _296
REMARK  117  A    between atoms: _296  and  _297
REMARK  118  A    between atoms: _303  and  _305
REMARK  119  A    between atoms: _316  and  _317
REMARK                            x       y       z     vdW  Elec       q    Type
REMARK                         _______ _______ _______ _____ _____    ______ ____
ROOT
ATOM      1  NE  ARG A   1     -75.532  -4.311  45.542  0.00  0.00    -0.265 N 
ATOM      2  HE  ARG A   1     -74.894  -4.720  46.254  0.00  0.00    +0.259 HD
ATOM      3  CZ  ARG A   1     -75.815  -5.044  44.469  0.00  0.00    +0.342 C 
ATOM      4  NH2 ARG A   1     -75.292  -6.259  44.338  0.00  0.00    -0.292 N 
ATOM      5 HH21 ARG A   1     -74.662  -6.636  45.074  0.00  0.00    +0.255 HD
ATOM      6 HH22 ARG A   1     -75.513  -6.833  43.499  0.00  0.00    +0.255 HD
ATOM      7  NH1 ARG A   1     -76.613  -4.561  43.528  0.00  0.00    -0.292 N 
ATOM      8 HH11 ARG A   1     -77.018  -3.608  43.628  0.00  0.00    +0.255 HD
ATOM      9 HH12 ARG A   1     -76.834  -5.134  42.689  0.00  0.00    +0.255 HD
ENDROOT
BRANCH   1  10
ATOM     10  CD  ARG A   1     -76.056  -2.973  45.788  0.00  0.00    +0.174 C 
BRANCH  10  11
ATOM     11  CG  ARG A   1     -75.300  -2.268  46.895  0.00  0.00    +0.045 C 
BRANCH  11  12
ATOM     12  CB  ARG A   1     -76.030  -1.013  47.344  0.00  0.00    +0.029 C 
BRANCH  12  13
ATOM     13  CA  ARG A   1     -75.090   0.089  47.823  0.00  0.00    +0.133 C 
BRANCH  13  14
ATOM     14  N   ARG A   1     -74.180  -0.416  48.841  0.00  0.00    -0.239 NA
ATOM     15  H   ARG A   1     -74.351  -1.347  49.272  0.00  0.00    +0.142 HD
ENDBRANCH  13  14
BRANCH  13  16
ATOM     16  C   ARG A   1     -75.883   1.307  48.288  0.00  0.00    +0.224 C 
ATOM     17  O   ARG A   1     -76.051   2.263  47.530  0.00  0.00    -0.287 OA
ENDBRANCH  13  16
ENDBRANCH  12  13
ENDBRANCH  11  12
ENDBRANCH  10  11
ENDBRANCH   1  10
TORSDOF 6
REMARK  Name = ../refined-set-2016/4oeu/4oeu_pocket.pdb
REMARK  119 active torsions:
REMARK  status: ('A' for Active; 'I' for Inactive)
REMARK    1  A    between atoms: _1  and  _3
REMARK    2  A    between atoms: _3  and  _4
REMARK    3  A    between atoms: _3  and  _6
REMARK    4  A    between atoms: _6  and  _7
REMARK    5  A    between atoms: _7  and  _8
REMARK    6  A    between atoms: _11  and  _13
REMARK    7  A    between atoms: _13  and  _14
REMARK    8  A    between atoms: _13  and  _16
REMARK    9  A    between atoms: _16  and  _17
REMARK   10  A    between atoms: _22  and  _24
REMARK   11  A    between atoms: _24  and  _25
REMARK   12  A    between atoms: _24  and  _27
REMARK   13  A    between atoms: _27  and  _28
REMARK   14  A    between atoms: _28  and  _29
REMARK   15  A    between atoms: _32  and  _34
REMARK   16  A    between atoms: _34  and  _35
REMARK   17  A    between atoms: _34  and  _37
REMARK   18  A    between atoms: _37  and  _38
REMARK   19  A    between atoms: _38  and  _39
REMARK   20  A    between atoms: _42  and  _44
REMARK   21  A    between atoms: _44  and  _45
REMARK   22  A    between atoms: _44  and  _47
REMARK   23  A    between atoms: _47  and  _48
REMARK   24  A    between atoms: _51  and  _53
REMARK   25  A    between atoms: _53  and  _54
REMARK   26  A    between atoms: _53  and  _56
REMARK   27  A    between atoms: _56  and  _57
REMARK   28  A    between atoms: _61  and  NI_325
REMARK   29  A    between atoms: _62  and  _64
REMARK   30  A    between atoms: _64  and  _65
REMARK   31  A    between atoms: _64  and  _67
REMARK   32  A    between atoms: _67  and  _68
REMARK   33  A    between atoms: _71  and  _73
REMARK   34  A    between atoms: _73  and  _74
REMARK   35  A    between atoms: _73  and  _76
REMARK   36  A    between atoms: _76  and  _77
REMARK   37  A    between atoms: _82  and  _83
REMARK   38  A    between atoms: _85  and  _87
REMARK   39  A    between atoms: _87  and  _88
REMARK   40  A    between atoms: _87  and  _90
REMARK   41  A    between atoms: _90  and  _91
REMARK   42  A    between atoms: _91  and  _92
REMARK   43  A    between atoms: _92  and  _93
REMARK   44  A    between atoms: _102  and  _104
REMARK   45  A    between atoms: _104  and  _105
REMARK   46  A    between atoms: _108  and  _110
REMARK   47  A    between atoms: _110  and  _111
REMARK   48  A    between atoms: _110  and  _113
REMARK   49  A    between atoms: _113  and  _114
REMARK   50  A    between atoms: _114  and  _115
REMARK   51  A    between atoms: _117  and  _119
REMARK   52  A    between atoms: _119  and  _120
REMARK   53  A    between atoms: _119  and  _122
REMARK   54  A    between atoms: _122  and  _123
REMARK   55  A    between atoms: _123  and  _124
REMARK   56  A    between atoms: _126  and  _128
REMARK   57  A    between atoms: _128  and  _129
REMARK   58  A    between atoms: _128  and  _131
REMARK   59  A    between atoms: _131  and  _132
REMARK   60  A    between atoms: _137  and  _139
REMARK   61  A    between atoms: _139  and  _140
REMARK   62  A    between atoms: _139  and  _142
REMARK   63  A    between atoms: _142  and  _143
REMARK   64  A    between atoms: _146  and  _148
REMARK   65  A    between atoms: _148  and  _149
REMARK   66  A    between atoms: _148  and  _151
REMARK   67  A    between atoms: _151  and  _152
REMARK   68  A    between atoms: _152  and  _153
REMARK   69  A    between atoms: _153  and  _154
REMARK   70  A    between atoms: _163  and  _165
REMARK   71  A    between atoms: _165  and  _166
REMARK   72  A    between atoms: _169  and  _171
REMARK   73  A    between atoms: _171  and  _172
REMARK   74  A    between atoms: _174  and  _176
REMARK   75  A    between atoms: _176  and  _177
REMARK   76  A    between atoms: _176  and  _179
REMARK   77  A    between atoms: _179  and  _180
REMARK   78  A    between atoms: _186  and  _188
REMARK   79  A    between atoms: _188  and  _189
REMARK   80  A    between atoms: _188  and  _191
REMARK   81  A    between atoms: _191  and  _192
REMARK   82  A    between atoms: _197  and  _198
REMARK   83  A    between atoms: _200  and  _202
REMARK   84  A    between atoms: _202  and  _203
REMARK   85  A    between atoms: _202  and  _205
REMARK   86  A    between atoms: _205  and  _206
REMARK   87  A    between atoms: _212  and  _214
REMARK   88  A    between atoms: _214  and  _215
REMARK   89  A    between atoms: _214  and  _217
REMARK   90  A    between atoms: _217  and  _218
REMARK   91  A    between atoms: _221  and  _223
REMARK   92  A    between atoms: _223  and  _224
REMARK   93  A    between atoms: _223  and  _226
REMARK   94  A    between atoms: _226  and  _227
REMARK   95  A    between atoms: _230  and  _232
REMARK   96  A    between atoms: _232  and  _233
REMARK   97  A    between atoms: _235  and  _237
REMARK   98  A    between atoms: _237  and  _238
REMARK   99  A    between atoms: _237  and  _240
REMARK  100  A    between atoms: _240  and  _241
REMARK  101  A    between atoms: _251  and  _253
REMARK  102  A    between atoms: _253  and  _254
REMARK  103  A    between atoms: _256  and  _258
REMARK  104  A    between atoms: _258  and  _259
REMARK  105  A    between atoms: _258  and  _261
REMARK  106  A    between atoms: _261  and  _262
REMARK  107  A    between atoms: _267  and  _269
REMARK  108  A    between atoms: _269  and  _270
REMARK  109  A    between atoms: _269  and  _272
REMARK  110  A    between atoms: _275  and  _277
REMARK  111  A    between atoms: _277  and  _278
REMARK  112  A    between atoms: _277  and  _280
REMARK  113  A    between atoms: _280  and  _281
REMARK  114  A    between atoms: _291  and  _293
REMARK  115  A    between atoms: _293  and  _294
REMARK  116  A    between atoms: _293  and  _296
REMARK  117  A    between atoms: _296  and  _297
REMARK  118  A    between atoms: _303  and  _305
REMARK  119  A    between atoms: _316  and  _317
REMARK                            x       y       z     vdW  Elec       q    Type
REMARK                         _______ _______ _______ _____ _____    ______ ____
ROOT
ATOM      1  C   ALA A   1     -84.629  -8.268  48.159  0.00  0.00    +0.238 C 
ATOM      2  O   ALA A   1     -84.970  -8.886  49.171  0.00  0.00    -0.274 OA
ATOM      3  N   GLY A   2     -85.265  -8.373  46.996  0.00  0.00    -0.297 N 
ATOM      4  H   GLY A   2     -84.935  -7.810  46.186  0.00  0.00    +0.150 HD
ENDROOT
BRANCH   1   5
ATOM      5  CA  ALA A   1     -83.466  -7.281  48.208  0.00  0.00    +0.145 C 
ATOM      6  CB  ALA A   1     -82.133  -8.019  48.136  0.00  0.00    +0.028 C 
BRANCH   5   7
ATOM      7  N   ALA A   1     -83.554  -6.480  49.426  0.00  0.00    -0.238 NA
ATOM      8  H   ALA A   1     -82.755  -6.476  50.092  0.00  0.00    +0.142 HD
ENDBRANCH   5   7
ENDBRANCH   1   5
BRANCH   3   9
ATOM      9  CA  GLY A   2     -86.409  -9.253  46.826  0.00  0.00    +0.163 C 
BRANCH   9  10
ATOM     10  C   GLY A   2     -87.755  -8.602  47.093  0.00  0.00    +0.229 C 
ATOM     11  O   GLY A   2     -88.790  -9.192  46.790  0.00  0.00    -0.286 OA
ENDBRANCH   9  10
ENDBRANCH   3   9
TORSDOF 4
REMARK  Name = ../refined-set-2016/4oeu/4oeu_pocket.pdb
REMARK  119 active torsions:
REMARK  status: ('A' for Active; 'I' for Inactive)
REMARK    1  A    between atoms: _1  and  _3
REMARK    2  A    between atoms: _3  and  _4
REMARK    3  A    between atoms: _3  and  _6
REMARK    4  A    between atoms: _6  and  _7
REMARK    5  A    between atoms: _7  and  _8
REMARK    6  A    between atoms: _11  and  _13
REMARK    7  A    between atoms: _13  and  _14
REMARK    8  A    between atoms: _13  and  _16
REMARK    9  A    between atoms: _16  and  _17
REMARK   10  A    between atoms: _22  and  _24
REMARK   11  A    between atoms: _24  and  _25
REMARK   12  A    between atoms: _24  and  _27
REMARK   13  A    between atoms: _27  and  _28
REMARK   14  A    between atoms: _28  and  _29
REMARK   15  A    between atoms: _32  and  _34
REMARK   16  A    between atoms: _34  and  _35
REMARK   17  A    between atoms: _34  and  _37
REMARK   18  A    between atoms: _37  and  _38
REMARK   19  A    between atoms: _38  and  _39
REMARK   20  A    between atoms: _42  and  _44
REMARK   21  A    between atoms: _44  and  _45
REMARK   22  A    between atoms: _44  and  _47
REMARK   23  A    between atoms: _47  and  _48
REMARK   24  A    between atoms: _51  and  _53
REMARK   25  A    between atoms: _53  and  _54
REMARK   26  A    between atoms: _53  and  _56
REMARK   27  A    between atoms: _56  and  _57
REMARK   28  A    between atoms: _61  and  NI_325
REMARK   29  A    between atoms: _62  and  _64
REMARK   30  A    between atoms: _64  and  _65
REMARK   31  A    between atoms: _64  and  _67
REMARK   32  A    between atoms: _67  and  _68
REMARK   33  A    between atoms: _71  and  _73
REMARK   34  A    between atoms: _73  and  _74
REMARK   35  A    between atoms: _73  and  _76
REMARK   36  A    between atoms: _76  and  _77
REMARK   37  A    between atoms: _82  and  _83
REMARK   38  A    between atoms: _85  and  _87
REMARK   39  A    between atoms: _87  and  _88
REMARK   40  A    between atoms: _87  and  _90
REMARK   41  A    between atoms: _90  and  _91
REMARK   42  A    between atoms: _91  and  _92
REMARK   43  A    between atoms: _92  and  _93
REMARK   44  A    between atoms: _102  and  _104
REMARK   45  A    between atoms: _104  and  _105
REMARK   46  A    between atoms: _108  and  _110
REMARK   47  A    between atoms: _110  and  _111
REMARK   48  A    between atoms: _110  and  _113
REMARK   49  A    between atoms: _113  and  _114
REMARK   50  A    between atoms: _114  and  _115
REMARK   51  A    between atoms: _117  and  _119
REMARK   52  A    between atoms: _119  and  _120
REMARK   53  A    between atoms: _119  and  _122
REMARK   54  A    between atoms: _122  and  _123
REMARK   55  A    between atoms: _123  and  _124
REMARK   56  A    between atoms: _126  and  _128
REMARK   57  A    between atoms: _128  and  _129
REMARK   58  A    between atoms: _128  and  _131
REMARK   59  A    between atoms: _131  and  _132
REMARK   60  A    between atoms: _137  and  _139
REMARK   61  A    between atoms: _139  and  _140
REMARK   62  A    between atoms: _139  and  _142
REMARK   63  A    between atoms: _142  and  _143
REMARK   64  A    between atoms: _146  and  _148
REMARK   65  A    between atoms: _148  and  _149
REMARK   66  A    between atoms: _148  and  _151
REMARK   67  A    between atoms: _151  and  _152
REMARK   68  A    between atoms: _152  and  _153
REMARK   69  A    between atoms: _153  and  _154
REMARK   70  A    between atoms: _163  and  _165
REMARK   71  A    between atoms: _165  and  _166
REMARK   72  A    between atoms: _169  and  _171
REMARK   73  A    between atoms: _171  and  _172
REMARK   74  A    between atoms: _174  and  _176
REMARK   75  A    between atoms: _176  and  _177
REMARK   76  A    between atoms: _176  and  _179
REMARK   77  A    between atoms: _179  and  _180
REMARK   78  A    between atoms: _186  and  _188
REMARK   79  A    between atoms: _188  and  _189
REMARK   80  A    between atoms: _188  and  _191
REMARK   81  A    between atoms: _191  and  _192
REMARK   82  A    between atoms: _197  and  _198
REMARK   83  A    between atoms: _200  and  _202
REMARK   84  A    between atoms: _202  and  _203
REMARK   85  A    between atoms: _202  and  _205
REMARK   86  A    between atoms: _205  and  _206
REMARK   87  A    between atoms: _212  and  _214
REMARK   88  A    between atoms: _214  and  _215
REMARK   89  A    between atoms: _214  and  _217
REMARK   90  A    between atoms: _217  and  _218
REMARK   91  A    between atoms: _221  and  _223
REMARK   92  A    between atoms: _223  and  _224
REMARK   93  A    between atoms: _223  and  _226
REMARK   94  A    between atoms: _226  and  _227
REMARK   95  A    between atoms: _230  and  _232
REMARK   96  A    between atoms: _232  and  _233
REMARK   97  A    between atoms: _235  and  _237
REMARK   98  A    between atoms: _237  and  _238
REMARK   99  A    between atoms: _237  and  _240
REMARK  100  A    between atoms: _240  and  _241
REMARK  101  A    between atoms: _251  and  _253
REMARK  102  A    between atoms: _253  and  _254
REMARK  103  A    between atoms: _256  and  _258
REMARK  104  A    between atoms: _258  and  _259
REMARK  105  A    between atoms: _258  and  _261
REMARK  106  A    between atoms: _261  and  _262
REMARK  107  A    between atoms: _267  and  _269
REMARK  108  A    between atoms: _269  and  _270
REMARK  109  A    between atoms: _269  and  _272
REMARK  110  A    between atoms: _275  and  _277
REMARK  111  A    between atoms: _277  and  _278
REMARK  112  A    between atoms: _277  and  _280
REMARK  113  A    between atoms: _280  and  _281
REMARK  114  A    between atoms: _291  and  _293
REMARK  115  A    between atoms: _293  and  _294
REMARK  116  A    between atoms: _293  and  _296
REMARK  117  A    between atoms: _296  and  _297
REMARK  118  A    between atoms: _303  and  _305
REMARK  119  A    between atoms: _316  and  _317
REMARK                            x       y       z     vdW  Elec       q    Type
REMARK                         _______ _______ _______ _____ _____    ______ ____
ROOT
ATOM      1  CB  PHE A   1     -88.882  -3.438  44.845  0.00  0.00    +0.051 C 
ENDROOT
BRANCH   1   2
ATOM      2  CG  PHE A   1     -87.399  -3.171  44.913  0.00  0.00    -0.020 A 
ATOM      3  CD2 PHE A   1     -86.707  -3.334  46.107  0.00  0.00    -0.004 A 
ATOM      4  CE2 PHE A   1     -85.345  -3.096  46.179  0.00  0.00    -0.000 A 
ATOM      5  CZ  PHE A   1     -84.652  -2.705  45.044  0.00  0.00    -0.000 A 
ATOM      6  CE1 PHE A   1     -85.326  -2.547  43.845  0.00  0.00    -0.000 A 
ATOM      7  CD1 PHE A   1     -86.692  -2.785  43.782  0.00  0.00    -0.004 A 
ENDBRANCH   1   2
BRANCH   1   8
ATOM      8  CA  PHE A   1     -89.231  -4.909  44.616  0.00  0.00    +0.137 C 
BRANCH   8   9
ATOM      9  N   PHE A   1     -88.796  -5.715  45.752  0.00  0.00    -0.239 NA
ATOM     10  H   PHE A   1     -87.862  -6.172  45.728  0.00  0.00    +0.142 HD
ENDBRANCH   8   9
BRANCH   8  11
ATOM     11  C   PHE A   1     -88.610  -5.387  43.299  0.00  0.00    +0.224 C 
ATOM     12  O   PHE A   1     -87.615  -6.110  43.294  0.00  0.00    -0.287 OA
ENDBRANCH   8  11
ENDBRANCH   1   8
TORSDOF 4
REMARK  Name = ../refined-set-2016/4oeu/4oeu_pocket.pdb
REMARK  119 active torsions:
REMARK  status: ('A' for Active; 'I' for Inactive)
REMARK    1  A    between atoms: _1  and  _3
REMARK    2  A    between atoms: _3  and  _4
REMARK    3  A    between atoms: _3  and  _6
REMARK    4  A    between atoms: _6  and  _7
REMARK    5  A    between atoms: _7  and  _8
REMARK    6  A    between atoms: _11  and  _13
REMARK    7  A    between atoms: _13  and  _14
REMARK    8  A    between atoms: _13  and  _16
REMARK    9  A    between atoms: _16  and  _17
REMARK   10  A    between atoms: _22  and  _24
REMARK   11  A    between atoms: _24  and  _25
REMARK   12  A    between atoms: _24  and  _27
REMARK   13  A    between atoms: _27  and  _28
REMARK   14  A    between atoms: _28  and  _29
REMARK   15  A    between atoms: _32  and  _34
REMARK   16  A    between atoms: _34  and  _35
REMARK   17  A    between atoms: _34  and  _37
REMARK   18  A    between atoms: _37  and  _38
REMARK   19  A    between atoms: _38  and  _39
REMARK   20  A    between atoms: _42  and  _44
REMARK   21  A    between atoms: _44  and  _45
REMARK   22  A    between atoms: _44  and  _47
REMARK   23  A    between atoms: _47  and  _48
REMARK   24  A    between atoms: _51  and  _53
REMARK   25  A    between atoms: _53  and  _54
REMARK   26  A    between atoms: _53  and  _56
REMARK   27  A    between atoms: _56  and  _57
REMARK   28  A    between atoms: _61  and  NI_325
REMARK   29  A    between atoms: _62  and  _64
REMARK   30  A    between atoms: _64  and  _65
REMARK   31  A    between atoms: _64  and  _67
REMARK   32  A    between atoms: _67  and  _68
REMARK   33  A    between atoms: _71  and  _73
REMARK   34  A    between atoms: _73  and  _74
REMARK   35  A    between atoms: _73  and  _76
REMARK   36  A    between atoms: _76  and  _77
REMARK   37  A    between atoms: _82  and  _83
REMARK   38  A    between atoms: _85  and  _87
REMARK   39  A    between atoms: _87  and  _88
REMARK   40  A    between atoms: _87  and  _90
REMARK   41  A    between atoms: _90  and  _91
REMARK   42  A    between atoms: _91  and  _92
REMARK   43  A    between atoms: _92  and  _93
REMARK   44  A    between atoms: _102  and  _104
REMARK   45  A    between atoms: _104  and  _105
REMARK   46  A    between atoms: _108  and  _110
REMARK   47  A    between atoms: _110  and  _111
REMARK   48  A    between atoms: _110  and  _113
REMARK   49  A    between atoms: _113  and  _114
REMARK   50  A    between atoms: _114  and  _115
REMARK   51  A    between atoms: _117  and  _119
REMARK   52  A    between atoms: _119  and  _120
REMARK   53  A    between atoms: _119  and  _122
REMARK   54  A    between atoms: _122  and  _123
REMARK   55  A    between atoms: _123  and  _124
REMARK   56  A    between atoms: _126  and  _128
REMARK   57  A    between atoms: _128  and  _129
REMARK   58  A    between atoms: _128  and  _131
REMARK   59  A    between atoms: _131  and  _132
REMARK   60  A    between atoms: _137  and  _139
REMARK   61  A    between atoms: _139  and  _140
REMARK   62  A    between atoms: _139  and  _142
REMARK   63  A    between atoms: _142  and  _143
REMARK   64  A    between atoms: _146  and  _148
REMARK   65  A    between atoms: _148  and  _149
REMARK   66  A    between atoms: _148  and  _151
REMARK   67  A    between atoms: _151  and  _152
REMARK   68  A    between atoms: _152  and  _153
REMARK   69  A    between atoms: _153  and  _154
REMARK   70  A    between atoms: _163  and  _165
REMARK   71  A    between atoms: _165  and  _166
REMARK   72  A    between atoms: _169  and  _171
REMARK   73  A    between atoms: _171  and  _172
REMARK   74  A    between atoms: _174  and  _176
REMARK   75  A    between atoms: _176  and  _177
REMARK   76  A    between atoms: _176  and  _179
REMARK   77  A    between atoms: _179  and  _180
REMARK   78  A    between atoms: _186  and  _188
REMARK   79  A    between atoms: _188  and  _189
REMARK   80  A    between atoms: _188  and  _191
REMARK   81  A    between atoms: _191  and  _192
REMARK   82  A    between atoms: _197  and  _198
REMARK   83  A    between atoms: _200  and  _202
REMARK   84  A    between atoms: _202  and  _203
REMARK   85  A    between atoms: _202  and  _205
REMARK   86  A    between atoms: _205  and  _206
REMARK   87  A    between atoms: _212  and  _214
REMARK   88  A    between atoms: _214  and  _215
REMARK   89  A    between atoms: _214  and  _217
REMARK   90  A    between atoms: _217  and  _218
REMARK   91  A    between atoms: _221  and  _223
REMARK   92  A    between atoms: _223  and  _224
REMARK   93  A    between atoms: _223  and  _226
REMARK   94  A    between atoms: _226  and  _227
REMARK   95  A    between atoms: _230  and  _232
REMARK   96  A    between atoms: _232  and  _233
REMARK   97  A    between atoms: _235  and  _237
REMARK   98  A    between atoms: _237  and  _238
REMARK   99  A    between atoms: _237  and  _240
REMARK  100  A    between atoms: _240  and  _241
REMARK  101  A    between atoms: _251  and  _253
REMARK  102  A    between atoms: _253  and  _254
REMARK  103  A    between atoms: _256  and  _258
REMARK  104  A    between atoms: _258  and  _259
REMARK  105  A    between atoms: _258  and  _261
REMARK  106  A    between atoms: _261  and  _262
REMARK  107  A    between atoms: _267  and  _269
REMARK  108  A    between atoms: _269  and  _270
REMARK  109  A    between atoms: _269  and  _272
REMARK  110  A    between atoms: _275  and  _277
REMARK  111  A    between atoms: _277  and  _278
REMARK  112  A    between atoms: _277  and  _280
REMARK  113  A    between atoms: _280  and  _281
REMARK  114  A    between atoms: _291  and  _293
REMARK  115  A    between atoms: _293  and  _294
REMARK  116  A    between atoms: _293  and  _296
REMARK  117  A    between atoms: _296  and  _297
REMARK  118  A    between atoms: _303  and  _305
REMARK  119  A    between atoms: _316  and  _317
REMARK                            x       y       z     vdW  Elec       q    Type
REMARK                         _______ _______ _______ _____ _____    ______ ____
ROOT
ATOM      1  CG  TYR A   1     -83.822  -5.394  40.340  0.00  0.00    -0.020 A 
ATOM      2  CD2 TYR A   1     -84.017  -6.242  41.425  0.00  0.00    -0.001 A 
ATOM      3  CE2 TYR A   1     -83.739  -7.594  41.332  0.00  0.00    +0.036 A 
ATOM      4  CZ  TYR A   1     -83.249  -8.101  40.144  0.00  0.00    +0.134 A 
ATOM      5  CE1 TYR A   1     -83.046  -7.277  39.062  0.00  0.00    +0.036 A 
ATOM      6  CD1 TYR A   1     -83.331  -5.933  39.165  0.00  0.00    -0.001 A 
ENDROOT
BRANCH   4   7
ATOM      7  OH  TYR A   1     -82.961  -9.440  40.019  0.00  0.00    -0.506 OA
ATOM      8  HH  TYR A   1     -82.623  -9.620  39.106  0.00  0.00    +0.292 HD
ENDBRANCH   4   7
BRANCH   1   9
ATOM      9  CB  TYR A   1     -84.121  -3.928  40.443  0.00  0.00    +0.051 C 
BRANCH   9  10
ATOM     10  CA  TYR A   1     -85.515  -3.526  39.955  0.00  0.00    +0.137 C 
BRANCH  10  11
ATOM     11  N   TYR A   1     -86.510  -4.528  40.340  0.00  0.00    -0.239 NA
ATOM     12  H   TYR A   1     -86.199  -5.478  40.628  0.00  0.00    +0.142 HD
ENDBRANCH  10  11
BRANCH  10  13
ATOM     13  C   TYR A   1     -85.495  -3.255  38.447  0.00  0.00    +0.224 C 
ATOM     14  O   TYR A   1     -84.845  -2.311  38.000  0.00  0.00    -0.287 OA
ENDBRANCH  10  13
ENDBRANCH   9  10
ENDBRANCH   1   9
TORSDOF 5
REMARK  Name = ../refined-set-2016/4oeu/4oeu_pocket.pdb
REMARK  119 active torsions:
REMARK  status: ('A' for Active; 'I' for Inactive)
REMARK    1  A    between atoms: _1  and  _3
REMARK    2  A    between atoms: _3  and  _4
REMARK    3  A    between atoms: _3  and  _6
REMARK    4  A    between atoms: _6  and  _7
REMARK    5  A    between atoms: _7  and  _8
REMARK    6  A    between atoms: _11  and  _13
REMARK    7  A    between atoms: _13  and  _14
REMARK    8  A    between atoms: _13  and  _16
REMARK    9  A    between atoms: _16  and  _17
REMARK   10  A    between atoms: _22  and  _24
REMARK   11  A    between atoms: _24  and  _25
REMARK   12  A    between atoms: _24  and  _27
REMARK   13  A    between atoms: _27  and  _28
REMARK   14  A    between atoms: _28  and  _29
REMARK   15  A    between atoms: _32  and  _34
REMARK   16  A    between atoms: _34  and  _35
REMARK   17  A    between atoms: _34  and  _37
REMARK   18  A    between atoms: _37  and  _38
REMARK   19  A    between atoms: _38  and  _39
REMARK   20  A    between atoms: _42  and  _44
REMARK   21  A    between atoms: _44  and  _45
REMARK   22  A    between atoms: _44  and  _47
REMARK   23  A    between atoms: _47  and  _48
REMARK   24  A    between atoms: _51  and  _53
REMARK   25  A    between atoms: _53  and  _54
REMARK   26  A    between atoms: _53  and  _56
REMARK   27  A    between atoms: _56  and  _57
REMARK   28  A    between atoms: _61  and  NI_325
REMARK   29  A    between atoms: _62  and  _64
REMARK   30  A    between atoms: _64  and  _65
REMARK   31  A    between atoms: _64  and  _67
REMARK   32  A    between atoms: _67  and  _68
REMARK   33  A    between atoms: _71  and  _73
REMARK   34  A    between atoms: _73  and  _74
REMARK   35  A    between atoms: _73  and  _76
REMARK   36  A    between atoms: _76  and  _77
REMARK   37  A    between atoms: _82  and  _83
REMARK   38  A    between atoms: _85  and  _87
REMARK   39  A    between atoms: _87  and  _88
REMARK   40  A    between atoms: _87  and  _90
REMARK   41  A    between atoms: _90  and  _91
REMARK   42  A    between atoms: _91  and  _92
REMARK   43  A    between atoms: _92  and  _93
REMARK   44  A    between atoms: _102  and  _104
REMARK   45  A    between atoms: _104  and  _105
REMARK   46  A    between atoms: _108  and  _110
REMARK   47  A    between atoms: _110  and  _111
REMARK   48  A    between atoms: _110  and  _113
REMARK   49  A    between atoms: _113  and  _114
REMARK   50  A    between atoms: _114  and  _115
REMARK   51  A    between atoms: _117  and  _119
REMARK   52  A    between atoms: _119  and  _120
REMARK   53  A    between atoms: _119  and  _122
REMARK   54  A    between atoms: _122  and  _123
REMARK   55  A    between atoms: _123  and  _124
REMARK   56  A    between atoms: _126  and  _128
REMARK   57  A    between atoms: _128  and  _129
REMARK   58  A    between atoms: _128  and  _131
REMARK   59  A    between atoms: _131  and  _132
REMARK   60  A    between atoms: _137  and  _139
REMARK   61  A    between atoms: _139  and  _140
REMARK   62  A    between atoms: _139  and  _142
REMARK   63  A    between atoms: _142  and  _143
REMARK   64  A    between atoms: _146  and  _148
REMARK   65  A    between atoms: _148  and  _149
REMARK   66  A    between atoms: _148  and  _151
REMARK   67  A    between atoms: _151  and  _152
REMARK   68  A    between atoms: _152  and  _153
REMARK   69  A    between atoms: _153  and  _154
REMARK   70  A    between atoms: _163  and  _165
REMARK   71  A    between atoms: _165  and  _166
REMARK   72  A    between atoms: _169  and  _171
REMARK   73  A    between atoms: _171  and  _172
REMARK   74  A    between atoms: _174  and  _176
REMARK   75  A    between atoms: _176  and  _177
REMARK   76  A    between atoms: _176  and  _179
REMARK   77  A    between atoms: _179  and  _180
REMARK   78  A    between atoms: _186  and  _188
REMARK   79  A    between atoms: _188  and  _189
REMARK   80  A    between atoms: _188  and  _191
REMARK   81  A    between atoms: _191  and  _192
REMARK   82  A    between atoms: _197  and  _198
REMARK   83  A    between atoms: _200  and  _202
REMARK   84  A    between atoms: _202  and  _203
REMARK   85  A    between atoms: _202  and  _205
REMARK   86  A    between atoms: _205  and  _206
REMARK   87  A    between atoms: _212  and  _214
REMARK   88  A    between atoms: _214  and  _215
REMARK   89  A    between atoms: _214  and  _217
REMARK   90  A    between atoms: _217  and  _218
REMARK   91  A    between atoms: _221  and  _223
REMARK   92  A    between atoms: _223  and  _224
REMARK   93  A    between atoms: _223  and  _226
REMARK   94  A    between atoms: _226  and  _227
REMARK   95  A    between atoms: _230  and  _232
REMARK   96  A    between atoms: _232  and  _233
REMARK   97  A    between atoms: _235  and  _237
REMARK   98  A    between atoms: _237  and  _238
REMARK   99  A    between atoms: _237  and  _240
REMARK  100  A    between atoms: _240  and  _241
REMARK  101  A    between atoms: _251  and  _253
REMARK  102  A    between atoms: _253  and  _254
REMARK  103  A    between atoms: _256  and  _258
REMARK  104  A    between atoms: _258  and  _259
REMARK  105  A    between atoms: _258  and  _261
REMARK  106  A    between atoms: _261  and  _262
REMARK  107  A    between atoms: _267  and  _269
REMARK  108  A    between atoms: _269  and  _270
REMARK  109  A    between atoms: _269  and  _272
REMARK  110  A    between atoms: _275  and  _277
REMARK  111  A    between atoms: _277  and  _278
REMARK  112  A    between atoms: _277  and  _280
REMARK  113  A    between atoms: _280  and  _281
REMARK  114  A    between atoms: _291  and  _293
REMARK  115  A    between atoms: _293  and  _294
REMARK  116  A    between atoms: _293  and  _296
REMARK  117  A    between atoms: _296  and  _297
REMARK  118  A    between atoms: _303  and  _305
REMARK  119  A    between atoms: _316  and  _317
REMARK                            x       y       z     vdW  Elec       q    Type
REMARK                         _______ _______ _______ _____ _____    ______ ____
ROOT
ATOM      1  CA  ILE A   3     -76.609  -2.849  40.289  0.00  0.00    +0.149 C 
ENDROOT
BRANCH   1   2
ATOM      2  C   ILE A   3     -75.186  -3.366  40.454  0.00  0.00    +0.241 C 
ATOM      3  O   ILE A   3     -74.266  -2.596  40.774  0.00  0.00    -0.273 OA
ATOM      4  N   GLY A   4     -75.025  -4.676  40.274  0.00  0.00    -0.295 N 
ATOM      5  H   GLY A   4     -75.870  -5.266  40.137  0.00  0.00    +0.150 HD
BRANCH   4   6
ATOM      6  CA  GLY A   4     -73.725  -5.316  40.261  0.00  0.00    +0.176 C 
BRANCH   6   7
ATOM      7  C   GLY A   4     -73.696  -6.544  39.363  0.00  0.00    +0.243 C 
ATOM      8  O   GLY A   4     -74.705  -7.246  39.215  0.00  0.00    -0.273 OA
ATOM      9  N   TRP A   5     -72.537  -6.788  38.754  0.00  0.00    -0.297 N 
ATOM     10  H   TRP A   5     -71.769  -6.096  38.865  0.00  0.00    +0.150 HD
BRANCH   9  11
ATOM     11  CA  TRP A   5     -72.284  -7.978  37.936  0.00  0.00    +0.153 C 
BRANCH  11  12
ATOM     12  C   TRP A   5     -70.791  -8.276  37.925  0.00  0.00    +0.241 C 
ATOM     13  O   TRP A   5     -69.988  -7.492  38.433  0.00  0.00    -0.273 OA
ATOM     14  N   GLY A   6     -70.410  -9.396  37.322  0.00  0.00    -0.296 N 
ATOM     15  H   GLY A   6     -71.123 -10.092  37.024  0.00  0.00    +0.150 HD
BRANCH  14  16
ATOM     16  CA  GLY A   6     -69.001  -9.655  37.076  0.00  0.00    +0.163 C 
BRANCH  16  17
ATOM     17  C   GLY A   6     -68.613 -11.110  37.208  0.00  0.00    +0.229 C 
ATOM     18  O   GLY A   6     -68.934 -11.766  38.202  0.00  0.00    -0.286 OA
ENDBRANCH  16  17
ENDBRANCH  14  16
ENDBRANCH  11  12
BRANCH  11  19
ATOM     19  CB  TRP A   5     -72.753  -7.785  36.492  0.00  0.00    +0.057 C 
BRANCH  19  20
ATOM     20  CG  TRP A   5     -74.230  -7.634  36.291  0.00  0.00    -0.002 A 
ATOM     21  CD2 TRP A   5     -75.224  -8.655  36.413  0.00  0.00    +0.013 A 
ATOM     22  CE3 TRP A   5     -75.184 -10.008  36.751  0.00  0.00    +0.001 A 
ATOM     23  CZ3 TRP A   5     -76.375 -10.722  36.778  0.00  0.00    +0.000 A 
ATOM     24  CH2 TRP A   5     -77.600 -10.105  36.481  0.00  0.00    +0.001 A 
ATOM     25  CZ2 TRP A   5     -77.667  -8.780  36.149  0.00  0.00    +0.017 A 
ATOM     26  CE2 TRP A   5     -76.469  -8.064  36.114  0.00  0.00    +0.056 A 
ATOM     27  NE1 TRP A   5     -76.235  -6.751  35.813  0.00  0.00    -0.352 N 
ATOM     28  HE1 TRP A   5     -76.959  -6.055  35.545  0.00  0.00    +0.166 HD
ATOM     29  CD1 TRP A   5     -74.889  -6.500  35.922  0.00  0.00    +0.068 A 
ENDBRANCH  19  20
ENDBRANCH  11  19
ENDBRANCH   9  11
ENDBRANCH   6   7
ENDBRANCH   4   6
ENDBRANCH   1   2
BRANCH   1  32
ATOM     30  C   LEU A   2     -77.247  -1.155  41.927  0.00  0.00    +0.241 C 
ATOM     31  O   LEU A   2     -77.473  -1.969  42.835  0.00  0.00    -0.273 OA
ATOM     32  N   ILE A   3     -76.714  -1.486  40.758  0.00  0.00    -0.297 N 
ATOM     33  H   ILE A   3     -76.353  -0.725  40.148  0.00  0.00    +0.150 HD
BRANCH  30  34
ATOM     34  CA  LEU A   2     -77.548   0.337  42.089  0.00  0.00    +0.149 C 
BRANCH  34  36
ATOM     35  C   PHE A   1     -79.340   0.642  40.548  0.00  0.00    +0.239 C 
ATOM     36  N   LEU A   2     -78.944   0.593  41.809  0.00  0.00    -0.297 N 
ATOM     37  H   LEU A   2     -79.623   0.736  42.584  0.00  0.00    +0.150 HD
ATOM     38  O   PHE A   1     -78.551   0.578  39.600  0.00  0.00    -0.274 OA
BRANCH  35  39
ATOM     39  CA  PHE A   1     -80.821   0.839  40.319  0.00  0.00    +0.149 C 
BRANCH  39  40
ATOM     40  N   PHE A   1     -81.062   1.891  39.335  0.00  0.00    -0.238 NA
ATOM     41  H   PHE A   1     -80.387   2.024  38.555  0.00  0.00    +0.142 HD
ENDBRANCH  39  40
BRANCH  39  42
ATOM     42  CB  PHE A   1     -81.477  -0.467  39.841  0.00  0.00    +0.053 C 
BRANCH  42  43
ATOM     43  CG  PHE A   1     -81.207  -1.671  40.710  0.00  0.00    -0.020 A 
ATOM     44  CD2 PHE A   1     -81.761  -1.778  41.981  0.00  0.00    -0.004 A 
ATOM     45  CE2 PHE A   1     -81.536  -2.908  42.766  0.00  0.00    -0.000 A 
ATOM     46  CZ  PHE A   1     -80.771  -3.952  42.271  0.00  0.00    -0.000 A 
ATOM     47  CE1 PHE A   1     -80.235  -3.869  40.997  0.00  0.00    -0.000 A 
ATOM     48  CD1 PHE A   1     -80.461  -2.736  40.220  0.00  0.00    -0.004 A 
ENDBRANCH  42  43
ENDBRANCH  39  42
ENDBRANCH  35  39
ENDBRANCH  34  36
BRANCH  34  49
ATOM     49  CB  LEU A   2     -77.172   0.821  43.472  0.00  0.00    +0.029 C 
BRANCH  49  50
ATOM     50  CG  LEU A   2     -75.728   1.288  43.358  0.00  0.00    +0.002 C 
ATOM     51  CD2 LEU A   2     -75.190   1.443  44.709  0.00  0.00    +0.000 C 
ATOM     52  CD1 LEU A   2     -75.631   2.608  42.587  0.00  0.00    +0.000 C 
ENDBRANCH  49  50
ENDBRANCH  34  49
ENDBRANCH  30  34
ENDBRANCH   1  32
BRANCH   1  53
ATOM     53  CB  ILE A   3     -77.028  -2.944  38.808  0.00  0.00    +0.027 C 
ATOM     54  CG2 ILE A   3     -75.902  -2.470  37.907  0.00  0.00    +0.002 C 
BRANCH  53  55
ATOM     55  CG1 ILE A   3     -77.485  -4.362  38.444  0.00  0.00    +0.002 C 
ATOM     56  CD1 ILE A   3     -78.330  -4.414  37.193  0.00  0.00    +0.000 C 
ENDBRANCH  53  55
ENDBRANCH   1  53
TORSDOF 20
REMARK  Name = ../refined-set-2016/4oeu/4oeu_pocket.pdb
REMARK  119 active torsions:
REMARK  status: ('A' for Active; 'I' for Inactive)
REMARK    1  A    between atoms: _1  and  _3
REMARK    2  A    between atoms: _3  and  _4
REMARK    3  A    between atoms: _3  and  _6
REMARK    4  A    between atoms: _6  and  _7
REMARK    5  A    between atoms: _7  and  _8
REMARK    6  A    between atoms: _11  and  _13
REMARK    7  A    between atoms: _13  and  _14
REMARK    8  A    between atoms: _13  and  _16
REMARK    9  A    between atoms: _16  and  _17
REMARK   10  A    between atoms: _22  and  _24
REMARK   11  A    between atoms: _24  and  _25
REMARK   12  A    between atoms: _24  and  _27
REMARK   13  A    between atoms: _27  and  _28
REMARK   14  A    between atoms: _28  and  _29
REMARK   15  A    between atoms: _32  and  _34
REMARK   16  A    between atoms: _34  and  _35
REMARK   17  A    between atoms: _34  and  _37
REMARK   18  A    between atoms: _37  and  _38
REMARK   19  A    between atoms: _38  and  _39
REMARK   20  A    between atoms: _42  and  _44
REMARK   21  A    between atoms: _44  and  _45
REMARK   22  A    between atoms: _44  and  _47
REMARK   23  A    between atoms: _47  and  _48
REMARK   24  A    between atoms: _51  and  _53
REMARK   25  A    between atoms: _53  and  _54
REMARK   26  A    between atoms: _53  and  _56
REMARK   27  A    between atoms: _56  and  _57
REMARK   28  A    between atoms: _61  and  NI_325
REMARK   29  A    between atoms: _62  and  _64
REMARK   30  A    between atoms: _64  and  _65
REMARK   31  A    between atoms: _64  and  _67
REMARK   32  A    between atoms: _67  and  _68
REMARK   33  A    between atoms: _71  and  _73
REMARK   34  A    between atoms: _73  and  _74
REMARK   35  A    between atoms: _73  and  _76
REMARK   36  A    between atoms: _76  and  _77
REMARK   37  A    between atoms: _82  and  _83
REMARK   38  A    between atoms: _85  and  _87
REMARK   39  A    between atoms: _87  and  _88
REMARK   40  A    between atoms: _87  and  _90
REMARK   41  A    between atoms: _90  and  _91
REMARK   42  A    between atoms: _91  and  _92
REMARK   43  A    between atoms: _92  and  _93
REMARK   44  A    between atoms: _102  and  _104
REMARK   45  A    between atoms: _104  and  _105
REMARK   46  A    between atoms: _108  and  _110
REMARK   47  A    between atoms: _110  and  _111
REMARK   48  A    between atoms: _110  and  _113
REMARK   49  A    between atoms: _113  and  _114
REMARK   50  A    between atoms: _114  and  _115
REMARK   51  A    between atoms: _117  and  _119
REMARK   52  A    between atoms: _119  and  _120
REMARK   53  A    between atoms: _119  and  _122
REMARK   54  A    between atoms: _122  and  _123
REMARK   55  A    between atoms: _123  and  _124
REMARK   56  A    between atoms: _126  and  _128
REMARK   57  A    between atoms: _128  and  _129
REMARK   58  A    between atoms: _128  and  _131
REMARK   59  A    between atoms: _131  and  _132
REMARK   60  A    between atoms: _137  and  _139
REMARK   61  A    between atoms: _139  and  _140
REMARK   62  A    between atoms: _139  and  _142
REMARK   63  A    between atoms: _142  and  _143
REMARK   64  A    between atoms: _146  and  _148
REMARK   65  A    between atoms: _148  and  _149
REMARK   66  A    between atoms: _148  and  _151
REMARK   67  A    between atoms: _151  and  _152
REMARK   68  A    between atoms: _152  and  _153
REMARK   69  A    between atoms: _153  and  _154
REMARK   70  A    between atoms: _163  and  _165
REMARK   71  A    between atoms: _165  and  _166
REMARK   72  A    between atoms: _169  and  _171
REMARK   73  A    between atoms: _171  and  _172
REMARK   74  A    between atoms: _174  and  _176
REMARK   75  A    between atoms: _176  and  _177
REMARK   76  A    between atoms: _176  and  _179
REMARK   77  A    between atoms: _179  and  _180
REMARK   78  A    between atoms: _186  and  _188
REMARK   79  A    between atoms: _188  and  _189
REMARK   80  A    between atoms: _188  and  _191
REMARK   81  A    between atoms: _191  and  _192
REMARK   82  A    between atoms: _197  and  _198
REMARK   83  A    between atoms: _200  and  _202
REMARK   84  A    between atoms: _202  and  _203
REMARK   85  A    between atoms: _202  and  _205
REMARK   86  A    between atoms: _205  and  _206
REMARK   87  A    between atoms: _212  and  _214
REMARK   88  A    between atoms: _214  and  _215
REMARK   89  A    between atoms: _214  and  _217
REMARK   90  A    between atoms: _217  and  _218
REMARK   91  A    between atoms: _221  and  _223
REMARK   92  A    between atoms: _223  and  _224
REMARK   93  A    between atoms: _223  and  _226
REMARK   94  A    between atoms: _226  and  _227
REMARK   95  A    between atoms: _230  and  _232
REMARK   96  A    between atoms: _232  and  _233
REMARK   97  A    between atoms: _235  and  _237
REMARK   98  A    between atoms: _237  and  _238
REMARK   99  A    between atoms: _237  and  _240
REMARK  100  A    between atoms: _240  and  _241
REMARK  101  A    between atoms: _251  and  _253
REMARK  102  A    between atoms: _253  and  _254
REMARK  103  A    between atoms: _256  and  _258
REMARK  104  A    between atoms: _258  and  _259
REMARK  105  A    between atoms: _258  and  _261
REMARK  106  A    between atoms: _261  and  _262
REMARK  107  A    between atoms: _267  and  _269
REMARK  108  A    between atoms: _269  and  _270
REMARK  109  A    between atoms: _269  and  _272
REMARK  110  A    between atoms: _275  and  _277
REMARK  111  A    between atoms: _277  and  _278
REMARK  112  A    between atoms: _277  and  _280
REMARK  113  A    between atoms: _280  and  _281
REMARK  114  A    between atoms: _291  and  _293
REMARK  115  A    between atoms: _293  and  _294
REMARK  116  A    between atoms: _293  and  _296
REMARK  117  A    between atoms: _296  and  _297
REMARK  118  A    between atoms: _303  and  _305
REMARK  119  A    between atoms: _316  and  _317
REMARK                            x       y       z     vdW  Elec       q    Type
REMARK                         _______ _______ _______ _____ _____    ______ ____
ROOT
ATOM      1  CB  HIS A   1     -71.299 -11.160  33.706  0.00  0.00    +0.072 C 
ENDROOT
BRANCH   1   2
ATOM      2  CG  HIS A   1     -71.641 -12.118  34.806  0.00  0.00    +0.082 A 
ATOM      3  ND1 HIS A   1     -71.645 -11.758  36.139  0.00  0.00    -0.227 NA
ATOM      4  CE1 HIS A   1     -71.979 -12.804  36.874  0.00  0.00    +0.199 A 
ATOM      5  NE2 HIS A   1     -72.183 -13.832  36.070  0.00  0.00    -0.221 NA
ATOM      6  CD2 HIS A   1     -71.980 -13.429  34.770  0.00  0.00    +0.115 A 
ENDBRANCH   1   2
BRANCH   1   7
ATOM      7  CA  HIS A   1     -71.844 -11.580  32.340  0.00  0.00    +0.139 C 
BRANCH   7   8
ATOM      8  N   HIS A   1     -71.037 -12.645  31.756  0.00  0.00    -0.239 NA
ATOM      9  H   HIS A   1     -70.011 -12.528  31.636  0.00  0.00    +0.142 HD
ENDBRANCH   7   8
BRANCH   7  10
ATOM     10  C   HIS A   1     -71.943 -10.368  31.422  0.00  0.00    +0.224 C 
ATOM     11  O   HIS A   1     -72.174  -9.248  31.888  0.00  0.00    -0.287 OA
ENDBRANCH   7  10
ENDBRANCH   1   7
TORSDOF 4
REMARK  Name = ../refined-set-2016/4oeu/4oeu_pocket.pdb
REMARK  119 active torsions:
REMARK  status: ('A' for Active; 'I' for Inactive)
REMARK    1  A    between atoms: _1  and  _3
REMARK    2  A    between atoms: _3  and  _4
REMARK    3  A    between atoms: _3  and  _6
REMARK    4  A    between atoms: _6  and  _7
REMARK    5  A    between atoms: _7  and  _8
REMARK    6  A    between atoms: _11  and  _13
REMARK    7  A    between atoms: _13  and  _14
REMARK    8  A    between atoms: _13  and  _16
REMARK    9  A    between atoms: _16  and  _17
REMARK   10  A    between atoms: _22  and  _24
REMARK   11  A    between atoms: _24  and  _25
REMARK   12  A    between atoms: _24  and  _27
REMARK   13  A    between atoms: _27  and  _28
REMARK   14  A    between atoms: _28  and  _29
REMARK   15  A    between atoms: _32  and  _34
REMARK   16  A    between atoms: _34  and  _35
REMARK   17  A    between atoms: _34  and  _37
REMARK   18  A    between atoms: _37  and  _38
REMARK   19  A    between atoms: _38  and  _39
REMARK   20  A    between atoms: _42  and  _44
REMARK   21  A    between atoms: _44  and  _45
REMARK   22  A    between atoms: _44  and  _47
REMARK   23  A    between atoms: _47  and  _48
REMARK   24  A    between atoms: _51  and  _53
REMARK   25  A    between atoms: _53  and  _54
REMARK   26  A    between atoms: _53  and  _56
REMARK   27  A    between atoms: _56  and  _57
REMARK   28  A    between atoms: _61  and  NI_325
REMARK   29  A    between atoms: _62  and  _64
REMARK   30  A    between atoms: _64  and  _65
REMARK   31  A    between atoms: _64  and  _67
REMARK   32  A    between atoms: _67  and  _68
REMARK   33  A    between atoms: _71  and  _73
REMARK   34  A    between atoms: _73  and  _74
REMARK   35  A    between atoms: _73  and  _76
REMARK   36  A    between atoms: _76  and  _77
REMARK   37  A    between atoms: _82  and  _83
REMARK   38  A    between atoms: _85  and  _87
REMARK   39  A    between atoms: _87  and  _88
REMARK   40  A    between atoms: _87  and  _90
REMARK   41  A    between atoms: _90  and  _91
REMARK   42  A    between atoms: _91  and  _92
REMARK   43  A    between atoms: _92  and  _93
REMARK   44  A    between atoms: _102  and  _104
REMARK   45  A    between atoms: _104  and  _105
REMARK   46  A    between atoms: _108  and  _110
REMARK   47  A    between atoms: _110  and  _111
REMARK   48  A    between atoms: _110  and  _113
REMARK   49  A    between atoms: _113  and  _114
REMARK   50  A    between atoms: _114  and  _115
REMARK   51  A    between atoms: _117  and  _119
REMARK   52  A    between atoms: _119  and  _120
REMARK   53  A    between atoms: _119  and  _122
REMARK   54  A    between atoms: _122  and  _123
REMARK   55  A    between atoms: _123  and  _124
REMARK   56  A    between atoms: _126  and  _128
REMARK   57  A    between atoms: _128  and  _129
REMARK   58  A    between atoms: _128  and  _131
REMARK   59  A    between atoms: _131  and  _132
REMARK   60  A    between atoms: _137  and  _139
REMARK   61  A    between atoms: _139  and  _140
REMARK   62  A    between atoms: _139  and  _142
REMARK   63  A    between atoms: _142  and  _143
REMARK   64  A    between atoms: _146  and  _148
REMARK   65  A    between atoms: _148  and  _149
REMARK   66  A    between atoms: _148  and  _151
REMARK   67  A    between atoms: _151  and  _152
REMARK   68  A    between atoms: _152  and  _153
REMARK   69  A    between atoms: _153  and  _154
REMARK   70  A    between atoms: _163  and  _165
REMARK   71  A    between atoms: _165  and  _166
REMARK   72  A    between atoms: _169  and  _171
REMARK   73  A    between atoms: _171  and  _172
REMARK   74  A    between atoms: _174  and  _176
REMARK   75  A    between atoms: _176  and  _177
REMARK   76  A    between atoms: _176  and  _179
REMARK   77  A    between atoms: _179  and  _180
REMARK   78  A    between atoms: _186  and  _188
REMARK   79  A    between atoms: _188  and  _189
REMARK   80  A    between atoms: _188  and  _191
REMARK   81  A    between atoms: _191  and  _192
REMARK   82  A    between atoms: _197  and  _198
REMARK   83  A    between atoms: _200  and  _202
REMARK   84  A    between atoms: _202  and  _203
REMARK   85  A    between atoms: _202  and  _205
REMARK   86  A    between atoms: _205  and  _206
REMARK   87  A    between atoms: _212  and  _214
REMARK   88  A    between atoms: _214  and  _215
REMARK   89  A    between atoms: _214  and  _217
REMARK   90  A    between atoms: _217  and  _218
REMARK   91  A    between atoms: _221  and  _223
REMARK   92  A    between atoms: _223  and  _224
REMARK   93  A    between atoms: _223  and  _226
REMARK   94  A    between atoms: _226  and  _227
REMARK   95  A    between atoms: _230  and  _232
REMARK   96  A    between atoms: _232  and  _233
REMARK   97  A    between atoms: _235  and  _237
REMARK   98  A    between atoms: _237  and  _238
REMARK   99  A    between atoms: _237  and  _240
REMARK  100  A    between atoms: _240  and  _241
REMARK  101  A    between atoms: _251  and  _253
REMARK  102  A    between atoms: _253  and  _254
REMARK  103  A    between atoms: _256  and  _258
REMARK  104  A    between atoms: _258  and  _259
REMARK  105  A    between atoms: _258  and  _261
REMARK  106  A    between atoms: _261  and  _262
REMARK  107  A    between atoms: _267  and  _269
REMARK  108  A    between atoms: _269  and  _270
REMARK  109  A    between atoms: _269  and  _272
REMARK  110  A    between atoms: _275  and  _277
REMARK  111  A    between atoms: _277  and  _278
REMARK  112  A    between atoms: _277  and  _280
REMARK  113  A    between atoms: _280  and  _281
REMARK  114  A    between atoms: _291  and  _293
REMARK  115  A    between atoms: _293  and  _294
REMARK  116  A    between atoms: _293  and  _296
REMARK  117  A    between atoms: _296  and  _297
REMARK  118  A    between atoms: _303  and  _305
REMARK  119  A    between atoms: _316  and  _317
REMARK                            x       y       z     vdW  Elec       q    Type
REMARK                         _______ _______ _______ _____ _____    ______ ____
ROOT
ATOM      1  CA  VAL A   1     -76.693  -8.362  30.706  0.00  0.00    +0.133 C 
ENDROOT
BRANCH   1   2
ATOM      2  CB  VAL A   1     -75.448  -8.110  31.587  0.00  0.00    +0.023 C 
ATOM      3  CG2 VAL A   1     -75.379  -9.154  32.683  0.00  0.00    +0.002 C 
ATOM      4  CG1 VAL A   1     -75.467  -6.712  32.200  0.00  0.00    +0.002 C 
ENDBRANCH   1   2
BRANCH   1   5
ATOM      5  N   VAL A   1     -76.573  -9.649  30.026  0.00  0.00    -0.239 NA
ATOM      6  H   VAL A   1     -75.630  -9.989  29.747  0.00  0.00    +0.142 HD
ENDBRANCH   1   5
BRANCH   1   7
ATOM      7  C   VAL A   1     -76.904  -7.182  29.744  0.00  0.00    +0.224 C 
ATOM      8  O   VAL A   1     -77.669  -6.262  30.052  0.00  0.00    -0.287 OA
ENDBRANCH   1   7
TORSDOF 3
REMARK  Name = ../refined-set-2016/4oeu/4oeu_pocket.pdb
REMARK  119 active torsions:
REMARK  status: ('A' for Active; 'I' for Inactive)
REMARK    1  A    between atoms: _1  and  _3
REMARK    2  A    between atoms: _3  and  _4
REMARK    3  A    between atoms: _3  and  _6
REMARK    4  A    between atoms: _6  and  _7
REMARK    5  A    between atoms: _7  and  _8
REMARK    6  A    between atoms: _11  and  _13
REMARK    7  A    between atoms: _13  and  _14
REMARK    8  A    between atoms: _13  and  _16
REMARK    9  A    between atoms: _16  and  _17
REMARK   10  A    between atoms: _22  and  _24
REMARK   11  A    between atoms: _24  and  _25
REMARK   12  A    between atoms: _24  and  _27
REMARK   13  A    between atoms: _27  and  _28
REMARK   14  A    between atoms: _28  and  _29
REMARK   15  A    between atoms: _32  and  _34
REMARK   16  A    between atoms: _34  and  _35
REMARK   17  A    between atoms: _34  and  _37
REMARK   18  A    between atoms: _37  and  _38
REMARK   19  A    between atoms: _38  and  _39
REMARK   20  A    between atoms: _42  and  _44
REMARK   21  A    between atoms: _44  and  _45
REMARK   22  A    between atoms: _44  and  _47
REMARK   23  A    between atoms: _47  and  _48
REMARK   24  A    between atoms: _51  and  _53
REMARK   25  A    between atoms: _53  and  _54
REMARK   26  A    between atoms: _53  and  _56
REMARK   27  A    between atoms: _56  and  _57
REMARK   28  A    between atoms: _61  and  NI_325
REMARK   29  A    between atoms: _62  and  _64
REMARK   30  A    between atoms: _64  and  _65
REMARK   31  A    between atoms: _64  and  _67
REMARK   32  A    between atoms: _67  and  _68
REMARK   33  A    between atoms: _71  and  _73
REMARK   34  A    between atoms: _73  and  _74
REMARK   35  A    between atoms: _73  and  _76
REMARK   36  A    between atoms: _76  and  _77
REMARK   37  A    between atoms: _82  and  _83
REMARK   38  A    between atoms: _85  and  _87
REMARK   39  A    between atoms: _87  and  _88
REMARK   40  A    between atoms: _87  and  _90
REMARK   41  A    between atoms: _90  and  _91
REMARK   42  A    between atoms: _91  and  _92
REMARK   43  A    between atoms: _92  and  _93
REMARK   44  A    between atoms: _102  and  _104
REMARK   45  A    between atoms: _104  and  _105
REMARK   46  A    between atoms: _108  and  _110
REMARK   47  A    between atoms: _110  and  _111
REMARK   48  A    between atoms: _110  and  _113
REMARK   49  A    between atoms: _113  and  _114
REMARK   50  A    between atoms: _114  and  _115
REMARK   51  A    between atoms: _117  and  _119
REMARK   52  A    between atoms: _119  and  _120
REMARK   53  A    between atoms: _119  and  _122
REMARK   54  A    between atoms: _122  and  _123
REMARK   55  A    between atoms: _123  and  _124
REMARK   56  A    between atoms: _126  and  _128
REMARK   57  A    between atoms: _128  and  _129
REMARK   58  A    between atoms: _128  and  _131
REMARK   59  A    between atoms: _131  and  _132
REMARK   60  A    between atoms: _137  and  _139
REMARK   61  A    between atoms: _139  and  _140
REMARK   62  A    between atoms: _139  and  _142
REMARK   63  A    between atoms: _142  and  _143
REMARK   64  A    between atoms: _146  and  _148
REMARK   65  A    between atoms: _148  and  _149
REMARK   66  A    between atoms: _148  and  _151
REMARK   67  A    between atoms: _151  and  _152
REMARK   68  A    between atoms: _152  and  _153
REMARK   69  A    between atoms: _153  and  _154
REMARK   70  A    between atoms: _163  and  _165
REMARK   71  A    between atoms: _165  and  _166
REMARK   72  A    between atoms: _169  and  _171
REMARK   73  A    between atoms: _171  and  _172
REMARK   74  A    between atoms: _174  and  _176
REMARK   75  A    between atoms: _176  and  _177
REMARK   76  A    between atoms: _176  and  _179
REMARK   77  A    between atoms: _179  and  _180
REMARK   78  A    between atoms: _186  and  _188
REMARK   79  A    between atoms: _188  and  _189
REMARK   80  A    between atoms: _188  and  _191
REMARK   81  A    between atoms: _191  and  _192
REMARK   82  A    between atoms: _197  and  _198
REMARK   83  A    between atoms: _200  and  _202
REMARK   84  A    between atoms: _202  and  _203
REMARK   85  A    between atoms: _202  and  _205
REMARK   86  A    between atoms: _205  and  _206
REMARK   87  A    between atoms: _212  and  _214
REMARK   88  A    between atoms: _214  and  _215
REMARK   89  A    between atoms: _214  and  _217
REMARK   90  A    between atoms: _217  and  _218
REMARK   91  A    between atoms: _221  and  _223
REMARK   92  A    between atoms: _223  and  _224
REMARK   93  A    between atoms: _223  and  _226
REMARK   94  A    between atoms: _226  and  _227
REMARK   95  A    between atoms: _230  and  _232
REMARK   96  A    between atoms: _232  and  _233
REMARK   97  A    between atoms: _235  and  _237
REMARK   98  A    between atoms: _237  and  _238
REMARK   99  A    between atoms: _237  and  _240
REMARK  100  A    between atoms: _240  and  _241
REMARK  101  A    between atoms: _251  and  _253
REMARK  102  A    between atoms: _253  and  _254
REMARK  103  A    between atoms: _256  and  _258
REMARK  104  A    between atoms: _258  and  _259
REMARK  105  A    between atoms: _258  and  _261
REMARK  106  A    between atoms: _261  and  _262
REMARK  107  A    between atoms: _267  and  _269
REMARK  108  A    between atoms: _269  and  _270
REMARK  109  A    between atoms: _269  and  _272
REMARK  110  A    between atoms: _275  and  _277
REMARK  111  A    between atoms: _277  and  _278
REMARK  112  A    between atoms: _277  and  _280
REMARK  113  A    between atoms: _280  and  _281
REMARK  114  A    between atoms: _291  and  _293
REMARK  115  A    between atoms: _293  and  _294
REMARK  116  A    between atoms: _293  and  _296
REMARK  117  A    between atoms: _296  and  _297
REMARK  118  A    between atoms: _303  and  _305
REMARK  119  A    between atoms: _316  and  _317
REMARK                            x       y       z     vdW  Elec       q    Type
REMARK                         _______ _______ _______ _____ _____    ______ ____
ROOT
ATOM      1  CG  TRP A   1     -79.080 -12.023  33.665  0.00  0.00    -0.002 A 
ATOM      2  CD2 TRP A   1     -77.933 -12.819  33.981  0.00  0.00    +0.013 A 
ATOM      3  CE2 TRP A   1     -78.400 -14.071  34.431  0.00  0.00    +0.056 A 
ATOM      4  CZ2 TRP A   1     -77.538 -15.096  34.824  0.00  0.00    +0.017 A 
ATOM      5  CH2 TRP A   1     -76.193 -14.855  34.755  0.00  0.00    +0.001 A 
ATOM      6  CZ3 TRP A   1     -75.693 -13.623  34.303  0.00  0.00    +0.000 A 
ATOM      7  NE1 TRP A   1     -79.773 -14.030  34.402  0.00  0.00    -0.352 N 
ATOM      8  HE1 TRP A   1     -80.408 -14.805  34.680  0.00  0.00    +0.166 HD
ATOM      9  CE3 TRP A   1     -76.552 -12.599  33.919  0.00  0.00    +0.001 A 
ATOM     10  CD1 TRP A   1     -80.171 -12.794  33.944  0.00  0.00    +0.068 A 
ENDROOT
BRANCH   1  11
ATOM     11  CB  TRP A   1     -79.071 -10.608  33.139  0.00  0.00    +0.053 C 
BRANCH  11  12
ATOM     12  CA  TRP A   1     -80.431 -10.093  32.667  0.00  0.00    +0.137 C 
BRANCH  12  13
ATOM     13  N   TRP A   1     -80.934 -10.888  31.547  0.00  0.00    -0.239 NA
ATOM     14  H   TRP A   1     -80.358 -10.983  30.686  0.00  0.00    +0.142 HD
ENDBRANCH  12  13
BRANCH  12  15
ATOM     15  C   TRP A   1     -80.313  -8.607  32.307  0.00  0.00    +0.224 C 
ATOM     16  O   TRP A   1     -79.691  -7.832  33.034  0.00  0.00    -0.287 OA
ENDBRANCH  12  15
ENDBRANCH  11  12
ENDBRANCH   1  11
TORSDOF 4
REMARK  Name = ../refined-set-2016/4oeu/4oeu_pocket.pdb
REMARK  119 active torsions:
REMARK  status: ('A' for Active; 'I' for Inactive)
REMARK    1  A    between atoms: _1  and  _3
REMARK    2  A    between atoms: _3  and  _4
REMARK    3  A    between atoms: _3  and  _6
REMARK    4  A    between atoms: _6  and  _7
REMARK    5  A    between atoms: _7  and  _8
REMARK    6  A    between atoms: _11  and  _13
REMARK    7  A    between atoms: _13  and  _14
REMARK    8  A    between atoms: _13  and  _16
REMARK    9  A    between atoms: _16  and  _17
REMARK   10  A    between atoms: _22  and  _24
REMARK   11  A    between atoms: _24  and  _25
REMARK   12  A    between atoms: _24  and  _27
REMARK   13  A    between atoms: _27  and  _28
REMARK   14  A    between atoms: _28  and  _29
REMARK   15  A    between atoms: _32  and  _34
REMARK   16  A    between atoms: _34  and  _35
REMARK   17  A    between atoms: _34  and  _37
REMARK   18  A    between atoms: _37  and  _38
REMARK   19  A    between atoms: _38  and  _39
REMARK   20  A    between atoms: _42  and  _44
REMARK   21  A    between atoms: _44  and  _45
REMARK   22  A    between atoms: _44  and  _47
REMARK   23  A    between atoms: _47  and  _48
REMARK   24  A    between atoms: _51  and  _53
REMARK   25  A    between atoms: _53  and  _54
REMARK   26  A    between atoms: _53  and  _56
REMARK   27  A    between atoms: _56  and  _57
REMARK   28  A    between atoms: _61  and  NI_325
REMARK   29  A    between atoms: _62  and  _64
REMARK   30  A    between atoms: _64  and  _65
REMARK   31  A    between atoms: _64  and  _67
REMARK   32  A    between atoms: _67  and  _68
REMARK   33  A    between atoms: _71  and  _73
REMARK   34  A    between atoms: _73  and  _74
REMARK   35  A    between atoms: _73  and  _76
REMARK   36  A    between atoms: _76  and  _77
REMARK   37  A    between atoms: _82  and  _83
REMARK   38  A    between atoms: _85  and  _87
REMARK   39  A    between atoms: _87  and  _88
REMARK   40  A    between atoms: _87  and  _90
REMARK   41  A    between atoms: _90  and  _91
REMARK   42  A    between atoms: _91  and  _92
REMARK   43  A    between atoms: _92  and  _93
REMARK   44  A    between atoms: _102  and  _104
REMARK   45  A    between atoms: _104  and  _105
REMARK   46  A    between atoms: _108  and  _110
REMARK   47  A    between atoms: _110  and  _111
REMARK   48  A    between atoms: _110  and  _113
REMARK   49  A    between atoms: _113  and  _114
REMARK   50  A    between atoms: _114  and  _115
REMARK   51  A    between atoms: _117  and  _119
REMARK   52  A    between atoms: _119  and  _120
REMARK   53  A    between atoms: _119  and  _122
REMARK   54  A    between atoms: _122  and  _123
REMARK   55  A    between atoms: _123  and  _124
REMARK   56  A    between atoms: _126  and  _128
REMARK   57  A    between atoms: _128  and  _129
REMARK   58  A    between atoms: _128  and  _131
REMARK   59  A    between atoms: _131  and  _132
REMARK   60  A    between atoms: _137  and  _139
REMARK   61  A    between atoms: _139  and  _140
REMARK   62  A    between atoms: _139  and  _142
REMARK   63  A    between atoms: _142  and  _143
REMARK   64  A    between atoms: _146  and  _148
REMARK   65  A    between atoms: _148  and  _149
REMARK   66  A    between atoms: _148  and  _151
REMARK   67  A    between atoms: _151  and  _152
REMARK   68  A    between atoms: _152  and  _153
REMARK   69  A    between atoms: _153  and  _154
REMARK   70  A    between atoms: _163  and  _165
REMARK   71  A    between atoms: _165  and  _166
REMARK   72  A    between atoms: _169  and  _171
REMARK   73  A    between atoms: _171  and  _172
REMARK   74  A    between atoms: _174  and  _176
REMARK   75  A    between atoms: _176  and  _177
REMARK   76  A    between atoms: _176  and  _179
REMARK   77  A    between atoms: _179  and  _180
REMARK   78  A    between atoms: _186  and  _188
REMARK   79  A    between atoms: _188  and  _189
REMARK   80  A    between atoms: _188  and  _191
REMARK   81  A    between atoms: _191  and  _192
REMARK   82  A    between atoms: _197  and  _198
REMARK   83  A    between atoms: _200  and  _202
REMARK   84  A    between atoms: _202  and  _203
REMARK   85  A    between atoms: _202  and  _205
REMARK   86  A    between atoms: _205  and  _206
REMARK   87  A    between atoms: _212  and  _214
REMARK   88  A    between atoms: _214  and  _215
REMARK   89  A    between atoms: _214  and  _217
REMARK   90  A    between atoms: _217  and  _218
REMARK   91  A    between atoms: _221  and  _223
REMARK   92  A    between atoms: _223  and  _224
REMARK   93  A    between atoms: _223  and  _226
REMARK   94  A    between atoms: _226  and  _227
REMARK   95  A    between atoms: _230  and  _232
REMARK   96  A    between atoms: _232  and  _233
REMARK   97  A    between atoms: _235  and  _237
REMARK   98  A    between atoms: _237  and  _238
REMARK   99  A    between atoms: _237  and  _240
REMARK  100  A    between atoms: _240  and  _241
REMARK  101  A    between atoms: _251  and  _253
REMARK  102  A    between atoms: _253  and  _254
REMARK  103  A    between atoms: _256  and  _258
REMARK  104  A    between atoms: _258  and  _259
REMARK  105  A    between atoms: _258  and  _261
REMARK  106  A    between atoms: _261  and  _262
REMARK  107  A    between atoms: _267  and  _269
REMARK  108  A    between atoms: _269  and  _270
REMARK  109  A    between atoms: _269  and  _272
REMARK  110  A    between atoms: _275  and  _277
REMARK  111  A    between atoms: _277  and  _278
REMARK  112  A    between atoms: _277  and  _280
REMARK  113  A    between atoms: _280  and  _281
REMARK  114  A    between atoms: _291  and  _293
REMARK  115  A    between atoms: _293  and  _294
REMARK  116  A    between atoms: _293  and  _296
REMARK  117  A    between atoms: _296  and  _297
REMARK  118  A    between atoms: _303  and  _305
REMARK  119  A    between atoms: _316  and  _317
REMARK                            x       y       z     vdW  Elec       q    Type
REMARK                         _______ _______ _______ _____ _____    ______ ____
ROOT
ATOM      1  CB  PHE A   1     -82.536  -5.407  35.021  0.00  0.00    +0.051 C 
ENDROOT
BRANCH   1   2
ATOM      2  CG  PHE A   1     -82.431  -6.854  35.469  0.00  0.00    -0.020 A 
ATOM      3  CD2 PHE A   1     -81.327  -7.300  36.177  0.00  0.00    -0.004 A 
ATOM      4  CE2 PHE A   1     -81.226  -8.633  36.579  0.00  0.00    -0.000 A 
ATOM      5  CZ  PHE A   1     -82.238  -9.540  36.266  0.00  0.00    -0.000 A 
ATOM      6  CE1 PHE A   1     -83.343  -9.110  35.558  0.00  0.00    -0.000 A 
ATOM      7  CD1 PHE A   1     -83.426  -7.772  35.147  0.00  0.00    -0.004 A 
ENDBRANCH   1   2
BRANCH   1   8
ATOM      8  CA  PHE A   1     -82.914  -5.237  33.537  0.00  0.00    +0.137 C 
BRANCH   8   9
ATOM      9  N   PHE A   1     -81.850  -5.771  32.685  0.00  0.00    -0.239 NA
ATOM     10  H   PHE A   1     -80.905  -5.910  33.097  0.00  0.00    +0.142 HD
ENDBRANCH   8   9
BRANCH   8  11
ATOM     11  C   PHE A   1     -83.235  -3.772  33.217  0.00  0.00    +0.224 C 
ATOM     12  O   PHE A   1     -84.322  -3.280  33.550  0.00  0.00    -0.287 OA
ENDBRANCH   8  11
ENDBRANCH   1   8
TORSDOF 4
REMARK  Name = ../refined-set-2016/4oeu/4oeu_pocket.pdb
REMARK  119 active torsions:
REMARK  status: ('A' for Active; 'I' for Inactive)
REMARK    1  A    between atoms: _1  and  _3
REMARK    2  A    between atoms: _3  and  _4
REMARK    3  A    between atoms: _3  and  _6
REMARK    4  A    between atoms: _6  and  _7
REMARK    5  A    between atoms: _7  and  _8
REMARK    6  A    between atoms: _11  and  _13
REMARK    7  A    between atoms: _13  and  _14
REMARK    8  A    between atoms: _13  and  _16
REMARK    9  A    between atoms: _16  and  _17
REMARK   10  A    between atoms: _22  and  _24
REMARK   11  A    between atoms: _24  and  _25
REMARK   12  A    between atoms: _24  and  _27
REMARK   13  A    between atoms: _27  and  _28
REMARK   14  A    between atoms: _28  and  _29
REMARK   15  A    between atoms: _32  and  _34
REMARK   16  A    between atoms: _34  and  _35
REMARK   17  A    between atoms: _34  and  _37
REMARK   18  A    between atoms: _37  and  _38
REMARK   19  A    between atoms: _38  and  _39
REMARK   20  A    between atoms: _42  and  _44
REMARK   21  A    between atoms: _44  and  _45
REMARK   22  A    between atoms: _44  and  _47
REMARK   23  A    between atoms: _47  and  _48
REMARK   24  A    between atoms: _51  and  _53
REMARK   25  A    between atoms: _53  and  _54
REMARK   26  A    between atoms: _53  and  _56
REMARK   27  A    between atoms: _56  and  _57
REMARK   28  A    between atoms: _61  and  NI_325
REMARK   29  A    between atoms: _62  and  _64
REMARK   30  A    between atoms: _64  and  _65
REMARK   31  A    between atoms: _64  and  _67
REMARK   32  A    between atoms: _67  and  _68
REMARK   33  A    between atoms: _71  and  _73
REMARK   34  A    between atoms: _73  and  _74
REMARK   35  A    between atoms: _73  and  _76
REMARK   36  A    between atoms: _76  and  _77
REMARK   37  A    between atoms: _82  and  _83
REMARK   38  A    between atoms: _85  and  _87
REMARK   39  A    between atoms: _87  and  _88
REMARK   40  A    between atoms: _87  and  _90
REMARK   41  A    between atoms: _90  and  _91
REMARK   42  A    between atoms: _91  and  _92
REMARK   43  A    between atoms: _92  and  _93
REMARK   44  A    between atoms: _102  and  _104
REMARK   45  A    between atoms: _104  and  _105
REMARK   46  A    between atoms: _108  and  _110
REMARK   47  A    between atoms: _110  and  _111
REMARK   48  A    between atoms: _110  and  _113
REMARK   49  A    between atoms: _113  and  _114
REMARK   50  A    between atoms: _114  and  _115
REMARK   51  A    between atoms: _117  and  _119
REMARK   52  A    between atoms: _119  and  _120
REMARK   53  A    between atoms: _119  and  _122
REMARK   54  A    between atoms: _122  and  _123
REMARK   55  A    between atoms: _123  and  _124
REMARK   56  A    between atoms: _126  and  _128
REMARK   57  A    between atoms: _128  and  _129
REMARK   58  A    between atoms: _128  and  _131
REMARK   59  A    between atoms: _131  and  _132
REMARK   60  A    between atoms: _137  and  _139
REMARK   61  A    between atoms: _139  and  _140
REMARK   62  A    between atoms: _139  and  _142
REMARK   63  A    between atoms: _142  and  _143
REMARK   64  A    between atoms: _146  and  _148
REMARK   65  A    between atoms: _148  and  _149
REMARK   66  A    between atoms: _148  and  _151
REMARK   67  A    between atoms: _151  and  _152
REMARK   68  A    between atoms: _152  and  _153
REMARK   69  A    between atoms: _153  and  _154
REMARK   70  A    between atoms: _163  and  _165
REMARK   71  A    between atoms: _165  and  _166
REMARK   72  A    between atoms: _169  and  _171
REMARK   73  A    between atoms: _171  and  _172
REMARK   74  A    between atoms: _174  and  _176
REMARK   75  A    between atoms: _176  and  _177
REMARK   76  A    between atoms: _176  and  _179
REMARK   77  A    between atoms: _179  and  _180
REMARK   78  A    between atoms: _186  and  _188
REMARK   79  A    between atoms: _188  and  _189
REMARK   80  A    between atoms: _188  and  _191
REMARK   81  A    between atoms: _191  and  _192
REMARK   82  A    between atoms: _197  and  _198
REMARK   83  A    between atoms: _200  and  _202
REMARK   84  A    between atoms: _202  and  _203
REMARK   85  A    between atoms: _202  and  _205
REMARK   86  A    between atoms: _205  and  _206
REMARK   87  A    between atoms: _212  and  _214
REMARK   88  A    between atoms: _214  and  _215
REMARK   89  A    between atoms: _214  and  _217
REMARK   90  A    between atoms: _217  and  _218
REMARK   91  A    between atoms: _221  and  _223
REMARK   92  A    between atoms: _223  and  _224
REMARK   93  A    between atoms: _223  and  _226
REMARK   94  A    between atoms: _226  and  _227
REMARK   95  A    between atoms: _230  and  _232
REMARK   96  A    between atoms: _232  and  _233
REMARK   97  A    between atoms: _235  and  _237
REMARK   98  A    between atoms: _237  and  _238
REMARK   99  A    between atoms: _237  and  _240
REMARK  100  A    between atoms: _240  and  _241
REMARK  101  A    between atoms: _251  and  _253
REMARK  102  A    between atoms: _253  and  _254
REMARK  103  A    between atoms: _256  and  _258
REMARK  104  A    between atoms: _258  and  _259
REMARK  105  A    between atoms: _258  and  _261
REMARK  106  A    between atoms: _261  and  _262
REMARK  107  A    between atoms: _267  and  _269
REMARK  108  A    between atoms: _269  and  _270
REMARK  109  A    between atoms: _269  and  _272
REMARK  110  A    between atoms: _275  and  _277
REMARK  111  A    between atoms: _277  and  _278
REMARK  112  A    between atoms: _277  and  _280
REMARK  113  A    between atoms: _280  and  _281
REMARK  114  A    between atoms: _291  and  _293
REMARK  115  A    between atoms: _293  and  _294
REMARK  116  A    between atoms: _293  and  _296
REMARK  117  A    between atoms: _296  and  _297
REMARK  118  A    between atoms: _303  and  _305
REMARK  119  A    between atoms: _316  and  _317
REMARK                            x       y       z     vdW  Elec       q    Type
REMARK                         _______ _______ _______ _____ _____    ______ ____
ROOT
ATOM      1  O   HOH     1     -72.351  -4.806  47.384  0.00  0.00    +0.000 OA
ENDROOT
TORSDOF 0
REMARK  Name = ../refined-set-2016/4oeu/4oeu_pocket.pdb
REMARK  119 active torsions:
REMARK  status: ('A' for Active; 'I' for Inactive)
REMARK    1  A    between atoms: _1  and  _3
REMARK    2  A    between atoms: _3  and  _4
REMARK    3  A    between atoms: _3  and  _6
REMARK    4  A    between atoms: _6  and  _7
REMARK    5  A    between atoms: _7  and  _8
REMARK    6  A    between atoms: _11  and  _13
REMARK    7  A    between atoms: _13  and  _14
REMARK    8  A    between atoms: _13  and  _16
REMARK    9  A    between atoms: _16  and  _17
REMARK   10  A    between atoms: _22  and  _24
REMARK   11  A    between atoms: _24  and  _25
REMARK   12  A    between atoms: _24  and  _27
REMARK   13  A    between atoms: _27  and  _28
REMARK   14  A    between atoms: _28  and  _29
REMARK   15  A    between atoms: _32  and  _34
REMARK   16  A    between atoms: _34  and  _35
REMARK   17  A    between atoms: _34  and  _37
REMARK   18  A    between atoms: _37  and  _38
REMARK   19  A    between atoms: _38  and  _39
REMARK   20  A    between atoms: _42  and  _44
REMARK   21  A    between atoms: _44  and  _45
REMARK   22  A    between atoms: _44  and  _47
REMARK   23  A    between atoms: _47  and  _48
REMARK   24  A    between atoms: _51  and  _53
REMARK   25  A    between atoms: _53  and  _54
REMARK   26  A    between atoms: _53  and  _56
REMARK   27  A    between atoms: _56  and  _57
REMARK   28  A    between atoms: _61  and  NI_325
REMARK   29  A    between atoms: _62  and  _64
REMARK   30  A    between atoms: _64  and  _65
REMARK   31  A    between atoms: _64  and  _67
REMARK   32  A    between atoms: _67  and  _68
REMARK   33  A    between atoms: _71  and  _73
REMARK   34  A    between atoms: _73  and  _74
REMARK   35  A    between atoms: _73  and  _76
REMARK   36  A    between atoms: _76  and  _77
REMARK   37  A    between atoms: _82  and  _83
REMARK   38  A    between atoms: _85  and  _87
REMARK   39  A    between atoms: _87  and  _88
REMARK   40  A    between atoms: _87  and  _90
REMARK   41  A    between atoms: _90  and  _91
REMARK   42  A    between atoms: _91  and  _92
REMARK   43  A    between atoms: _92  and  _93
REMARK   44  A    between atoms: _102  and  _104
REMARK   45  A    between atoms: _104  and  _105
REMARK   46  A    between atoms: _108  and  _110
REMARK   47  A    between atoms: _110  and  _111
REMARK   48  A    between atoms: _110  and  _113
REMARK   49  A    between atoms: _113  and  _114
REMARK   50  A    between atoms: _114  and  _115
REMARK   51  A    between atoms: _117  and  _119
REMARK   52  A    between atoms: _119  and  _120
REMARK   53  A    between atoms: _119  and  _122
REMARK   54  A    between atoms: _122  and  _123
REMARK   55  A    between atoms: _123  and  _124
REMARK   56  A    between atoms: _126  and  _128
REMARK   57  A    between atoms: _128  and  _129
REMARK   58  A    between atoms: _128  and  _131
REMARK   59  A    between atoms: _131  and  _132
REMARK   60  A    between atoms: _137  and  _139
REMARK   61  A    between atoms: _139  and  _140
REMARK   62  A    between atoms: _139  and  _142
REMARK   63  A    between atoms: _142  and  _143
REMARK   64  A    between atoms: _146  and  _148
REMARK   65  A    between atoms: _148  and  _149
REMARK   66  A    between atoms: _148  and  _151
REMARK   67  A    between atoms: _151  and  _152
REMARK   68  A    between atoms: _152  and  _153
REMARK   69  A    between atoms: _153  and  _154
REMARK   70  A    between atoms: _163  and  _165
REMARK   71  A    between atoms: _165  and  _166
REMARK   72  A    between atoms: _169  and  _171
REMARK   73  A    between atoms: _171  and  _172
REMARK   74  A    between atoms: _174  and  _176
REMARK   75  A    between atoms: _176  and  _177
REMARK   76  A    between atoms: _176  and  _179
REMARK   77  A    between atoms: _179  and  _180
REMARK   78  A    between atoms: _186  and  _188
REMARK   79  A    between atoms: _188  and  _189
REMARK   80  A    between atoms: _188  and  _191
REMARK   81  A    between atoms: _191  and  _192
REMARK   82  A    between atoms: _197  and  _198
REMARK   83  A    between atoms: _200  and  _202
REMARK   84  A    between atoms: _202  and  _203
REMARK   85  A    between atoms: _202  and  _205
REMARK   86  A    between atoms: _205  and  _206
REMARK   87  A    between atoms: _212  and  _214
REMARK   88  A    between atoms: _214  and  _215
REMARK   89  A    between atoms: _214  and  _217
REMARK   90  A    between atoms: _217  and  _218
REMARK   91  A    between atoms: _221  and  _223
REMARK   92  A    between atoms: _223  and  _224
REMARK   93  A    between atoms: _223  and  _226
REMARK   94  A    between atoms: _226  and  _227
REMARK   95  A    between atoms: _230  and  _232
REMARK   96  A    between atoms: _232  and  _233
REMARK   97  A    between atoms: _235  and  _237
REMARK   98  A    between atoms: _237  and  _238
REMARK   99  A    between atoms: _237  and  _240
REMARK  100  A    between atoms: _240  and  _241
REMARK  101  A    between atoms: _251  and  _253
REMARK  102  A    between atoms: _253  and  _254
REMARK  103  A    between atoms: _256  and  _258
REMARK  104  A    between atoms: _258  and  _259
REMARK  105  A    between atoms: _258  and  _261
REMARK  106  A    between atoms: _261  and  _262
REMARK  107  A    between atoms: _267  and  _269
REMARK  108  A    between atoms: _269  and  _270
REMARK  109  A    between atoms: _269  and  _272
REMARK  110  A    between atoms: _275  and  _277
REMARK  111  A    between atoms: _277  and  _278
REMARK  112  A    between atoms: _277  and  _280
REMARK  113  A    between atoms: _280  and  _281
REMARK  114  A    between atoms: _291  and  _293
REMARK  115  A    between atoms: _293  and  _294
REMARK  116  A    between atoms: _293  and  _296
REMARK  117  A    between atoms: _296  and  _297
REMARK  118  A    between atoms: _303  and  _305
REMARK  119  A    between atoms: _316  and  _317
REMARK                            x       y       z     vdW  Elec       q    Type
REMARK                         _______ _______ _______ _____ _____    ______ ____
ROOT
ATOM      1  O   HOH     1     -79.367  -2.171  44.895  0.00  0.00    +0.000 OA
ENDROOT
TORSDOF 0
REMARK  Name = ../refined-set-2016/4oeu/4oeu_pocket.pdb
REMARK  119 active torsions:
REMARK  status: ('A' for Active; 'I' for Inactive)
REMARK    1  A    between atoms: _1  and  _3
REMARK    2  A    between atoms: _3  and  _4
REMARK    3  A    between atoms: _3  and  _6
REMARK    4  A    between atoms: _6  and  _7
REMARK    5  A    between atoms: _7  and  _8
REMARK    6  A    between atoms: _11  and  _13
REMARK    7  A    between atoms: _13  and  _14
REMARK    8  A    between atoms: _13  and  _16
REMARK    9  A    between atoms: _16  and  _17
REMARK   10  A    between atoms: _22  and  _24
REMARK   11  A    between atoms: _24  and  _25
REMARK   12  A    between atoms: _24  and  _27
REMARK   13  A    between atoms: _27  and  _28
REMARK   14  A    between atoms: _28  and  _29
REMARK   15  A    between atoms: _32  and  _34
REMARK   16  A    between atoms: _34  and  _35
REMARK   17  A    between atoms: _34  and  _37
REMARK   18  A    between atoms: _37  and  _38
REMARK   19  A    between atoms: _38  and  _39
REMARK   20  A    between atoms: _42  and  _44
REMARK   21  A    between atoms: _44  and  _45
REMARK   22  A    between atoms: _44  and  _47
REMARK   23  A    between atoms: _47  and  _48
REMARK   24  A    between atoms: _51  and  _53
REMARK   25  A    between atoms: _53  and  _54
REMARK   26  A    between atoms: _53  and  _56
REMARK   27  A    between atoms: _56  and  _57
REMARK   28  A    between atoms: _61  and  NI_325
REMARK   29  A    between atoms: _62  and  _64
REMARK   30  A    between atoms: _64  and  _65
REMARK   31  A    between atoms: _64  and  _67
REMARK   32  A    between atoms: _67  and  _68
REMARK   33  A    between atoms: _71  and  _73
REMARK   34  A    between atoms: _73  and  _74
REMARK   35  A    between atoms: _73  and  _76
REMARK   36  A    between atoms: _76  and  _77
REMARK   37  A    between atoms: _82  and  _83
REMARK   38  A    between atoms: _85  and  _87
REMARK   39  A    between atoms: _87  and  _88
REMARK   40  A    between atoms: _87  and  _90
REMARK   41  A    between atoms: _90  and  _91
REMARK   42  A    between atoms: _91  and  _92
REMARK   43  A    between atoms: _92  and  _93
REMARK   44  A    between atoms: _102  and  _104
REMARK   45  A    between atoms: _104  and  _105
REMARK   46  A    between atoms: _108  and  _110
REMARK   47  A    between atoms: _110  and  _111
REMARK   48  A    between atoms: _110  and  _113
REMARK   49  A    between atoms: _113  and  _114
REMARK   50  A    between atoms: _114  and  _115
REMARK   51  A    between atoms: _117  and  _119
REMARK   52  A    between atoms: _119  and  _120
REMARK   53  A    between atoms: _119  and  _122
REMARK   54  A    between atoms: _122  and  _123
REMARK   55  A    between atoms: _123  and  _124
REMARK   56  A    between atoms: _126  and  _128
REMARK   57  A    between atoms: _128  and  _129
REMARK   58  A    between atoms: _128  and  _131
REMARK   59  A    between atoms: _131  and  _132
REMARK   60  A    between atoms: _137  and  _139
REMARK   61  A    between atoms: _139  and  _140
REMARK   62  A    between atoms: _139  and  _142
REMARK   63  A    between atoms: _142  and  _143
REMARK   64  A    between atoms: _146  and  _148
REMARK   65  A    between atoms: _148  and  _149
REMARK   66  A    between atoms: _148  and  _151
REMARK   67  A    between atoms: _151  and  _152
REMARK   68  A    between atoms: _152  and  _153
REMARK   69  A    between atoms: _153  and  _154
REMARK   70  A    between atoms: _163  and  _165
REMARK   71  A    between atoms: _165  and  _166
REMARK   72  A    between atoms: _169  and  _171
REMARK   73  A    between atoms: _171  and  _172
REMARK   74  A    between atoms: _174  and  _176
REMARK   75  A    between atoms: _176  and  _177
REMARK   76  A    between atoms: _176  and  _179
REMARK   77  A    between atoms: _179  and  _180
REMARK   78  A    between atoms: _186  and  _188
REMARK   79  A    between atoms: _188  and  _189
REMARK   80  A    between atoms: _188  and  _191
REMARK   81  A    between atoms: _191  and  _192
REMARK   82  A    between atoms: _197  and  _198
REMARK   83  A    between atoms: _200  and  _202
REMARK   84  A    between atoms: _202  and  _203
REMARK   85  A    between atoms: _202  and  _205
REMARK   86  A    between atoms: _205  and  _206
REMARK   87  A    between atoms: _212  and  _214
REMARK   88  A    between atoms: _214  and  _215
REMARK   89  A    between atoms: _214  and  _217
REMARK   90  A    between atoms: _217  and  _218
REMARK   91  A    between atoms: _221  and  _223
REMARK   92  A    between atoms: _223  and  _224
REMARK   93  A    between atoms: _223  and  _226
REMARK   94  A    between atoms: _226  and  _227
REMARK   95  A    between atoms: _230  and  _232
REMARK   96  A    between atoms: _232  and  _233
REMARK   97  A    between atoms: _235  and  _237
REMARK   98  A    between atoms: _237  and  _238
REMARK   99  A    between atoms: _237  and  _240
REMARK  100  A    between atoms: _240  and  _241
REMARK  101  A    between atoms: _251  and  _253
REMARK  102  A    between atoms: _253  and  _254
REMARK  103  A    between atoms: _256  and  _258
REMARK  104  A    between atoms: _258  and  _259
REMARK  105  A    between atoms: _258  and  _261
REMARK  106  A    between atoms: _261  and  _262
REMARK  107  A    between atoms: _267  and  _269
REMARK  108  A    between atoms: _269  and  _270
REMARK  109  A    between atoms: _269  and  _272
REMARK  110  A    between atoms: _275  and  _277
REMARK  111  A    between atoms: _277  and  _278
REMARK  112  A    between atoms: _277  and  _280
REMARK  113  A    between atoms: _280  and  _281
REMARK  114  A    between atoms: _291  and  _293
REMARK  115  A    between atoms: _293  and  _294
REMARK  116  A    between atoms: _293  and  _296
REMARK  117  A    between atoms: _296  and  _297
REMARK  118  A    between atoms: _303  and  _305
REMARK  119  A    between atoms: _316  and  _317
REMARK                            x       y       z     vdW  Elec       q    Type
REMARK                         _______ _______ _______ _____ _____    ______ ____
ROOT
ATOM      1  O   HOH     1     -71.212 -14.394  40.436  0.00  0.00    +0.000 OA
ENDROOT
TORSDOF 0
REMARK  Name = ../refined-set-2016/4oeu/4oeu_pocket.pdb
REMARK  119 active torsions:
REMARK  status: ('A' for Active; 'I' for Inactive)
REMARK    1  A    between atoms: _1  and  _3
REMARK    2  A    between atoms: _3  and  _4
REMARK    3  A    between atoms: _3  and  _6
REMARK    4  A    between atoms: _6  and  _7
REMARK    5  A    between atoms: _7  and  _8
REMARK    6  A    between atoms: _11  and  _13
REMARK    7  A    between atoms: _13  and  _14
REMARK    8  A    between atoms: _13  and  _16
REMARK    9  A    between atoms: _16  and  _17
REMARK   10  A    between atoms: _22  and  _24
REMARK   11  A    between atoms: _24  and  _25
REMARK   12  A    between atoms: _24  and  _27
REMARK   13  A    between atoms: _27  and  _28
REMARK   14  A    between atoms: _28  and  _29
REMARK   15  A    between atoms: _32  and  _34
REMARK   16  A    between atoms: _34  and  _35
REMARK   17  A    between atoms: _34  and  _37
REMARK   18  A    between atoms: _37  and  _38
REMARK   19  A    between atoms: _38  and  _39
REMARK   20  A    between atoms: _42  and  _44
REMARK   21  A    between atoms: _44  and  _45
REMARK   22  A    between atoms: _44  and  _47
REMARK   23  A    between atoms: _47  and  _48
REMARK   24  A    between atoms: _51  and  _53
REMARK   25  A    between atoms: _53  and  _54
REMARK   26  A    between atoms: _53  and  _56
REMARK   27  A    between atoms: _56  and  _57
REMARK   28  A    between atoms: _61  and  NI_325
REMARK   29  A    between atoms: _62  and  _64
REMARK   30  A    between atoms: _64  and  _65
REMARK   31  A    between atoms: _64  and  _67
REMARK   32  A    between atoms: _67  and  _68
REMARK   33  A    between atoms: _71  and  _73
REMARK   34  A    between atoms: _73  and  _74
REMARK   35  A    between atoms: _73  and  _76
REMARK   36  A    between atoms: _76  and  _77
REMARK   37  A    between atoms: _82  and  _83
REMARK   38  A    between atoms: _85  and  _87
REMARK   39  A    between atoms: _87  and  _88
REMARK   40  A    between atoms: _87  and  _90
REMARK   41  A    between atoms: _90  and  _91
REMARK   42  A    between atoms: _91  and  _92
REMARK   43  A    between atoms: _92  and  _93
REMARK   44  A    between atoms: _102  and  _104
REMARK   45  A    between atoms: _104  and  _105
REMARK   46  A    between atoms: _108  and  _110
REMARK   47  A    between atoms: _110  and  _111
REMARK   48  A    between atoms: _110  and  _113
REMARK   49  A    between atoms: _113  and  _114
REMARK   50  A    between atoms: _114  and  _115
REMARK   51  A    between atoms: _117  and  _119
REMARK   52  A    between atoms: _119  and  _120
REMARK   53  A    between atoms: _119  and  _122
REMARK   54  A    between atoms: _122  and  _123
REMARK   55  A    between atoms: _123  and  _124
REMARK   56  A    between atoms: _126  and  _128
REMARK   57  A    between atoms: _128  and  _129
REMARK   58  A    between atoms: _128  and  _131
REMARK   59  A    between atoms: _131  and  _132
REMARK   60  A    between atoms: _137  and  _139
REMARK   61  A    between atoms: _139  and  _140
REMARK   62  A    between atoms: _139  and  _142
REMARK   63  A    between atoms: _142  and  _143
REMARK   64  A    between atoms: _146  and  _148
REMARK   65  A    between atoms: _148  and  _149
REMARK   66  A    between atoms: _148  and  _151
REMARK   67  A    between atoms: _151  and  _152
REMARK   68  A    between atoms: _152  and  _153
REMARK   69  A    between atoms: _153  and  _154
REMARK   70  A    between atoms: _163  and  _165
REMARK   71  A    between atoms: _165  and  _166
REMARK   72  A    between atoms: _169  and  _171
REMARK   73  A    between atoms: _171  and  _172
REMARK   74  A    between atoms: _174  and  _176
REMARK   75  A    between atoms: _176  and  _177
REMARK   76  A    between atoms: _176  and  _179
REMARK   77  A    between atoms: _179  and  _180
REMARK   78  A    between atoms: _186  and  _188
REMARK   79  A    between atoms: _188  and  _189
REMARK   80  A    between atoms: _188  and  _191
REMARK   81  A    between atoms: _191  and  _192
REMARK   82  A    between atoms: _197  and  _198
REMARK   83  A    between atoms: _200  and  _202
REMARK   84  A    between atoms: _202  and  _203
REMARK   85  A    between atoms: _202  and  _205
REMARK   86  A    between atoms: _205  and  _206
REMARK   87  A    between atoms: _212  and  _214
REMARK   88  A    between atoms: _214  and  _215
REMARK   89  A    between atoms: _214  and  _217
REMARK   90  A    between atoms: _217  and  _218
REMARK   91  A    between atoms: _221  and  _223
REMARK   92  A    between atoms: _223  and  _224
REMARK   93  A    between atoms: _223  and  _226
REMARK   94  A    between atoms: _226  and  _227
REMARK   95  A    between atoms: _230  and  _232
REMARK   96  A    between atoms: _232  and  _233
REMARK   97  A    between atoms: _235  and  _237
REMARK   98  A    between atoms: _237  and  _238
REMARK   99  A    between atoms: _237  and  _240
REMARK  100  A    between atoms: _240  and  _241
REMARK  101  A    between atoms: _251  and  _253
REMARK  102  A    between atoms: _253  and  _254
REMARK  103  A    between atoms: _256  and  _258
REMARK  104  A    between atoms: _258  and  _259
REMARK  105  A    between atoms: _258  and  _261
REMARK  106  A    between atoms: _261  and  _262
REMARK  107  A    between atoms: _267  and  _269
REMARK  108  A    between atoms: _269  and  _270
REMARK  109  A    between atoms: _269  and  _272
REMARK  110  A    between atoms: _275  and  _277
REMARK  111  A    between atoms: _277  and  _278
REMARK  112  A    between atoms: _277  and  _280
REMARK  113  A    between atoms: _280  and  _281
REMARK  114  A    between atoms: _291  and  _293
REMARK  115  A    between atoms: _293  and  _294
REMARK  116  A    between atoms: _293  and  _296
REMARK  117  A    between atoms: _296  and  _297
REMARK  118  A    between atoms: _303  and  _305
REMARK  119  A    between atoms: _316  and  _317
REMARK                            x       y       z     vdW  Elec       q    Type
REMARK                         _______ _______ _______ _____ _____    ______ ____
ROOT
ATOM      1  O   HOH     1     -74.615  -7.327  47.255  0.00  0.00    +0.000 OA
ENDROOT
TORSDOF 0
REMARK  Name = ../refined-set-2016/4oeu/4oeu_pocket.pdb
REMARK  119 active torsions:
REMARK  status: ('A' for Active; 'I' for Inactive)
REMARK    1  A    between atoms: _1  and  _3
REMARK    2  A    between atoms: _3  and  _4
REMARK    3  A    between atoms: _3  and  _6
REMARK    4  A    between atoms: _6  and  _7
REMARK    5  A    between atoms: _7  and  _8
REMARK    6  A    between atoms: _11  and  _13
REMARK    7  A    between atoms: _13  and  _14
REMARK    8  A    between atoms: _13  and  _16
REMARK    9  A    between atoms: _16  and  _17
REMARK   10  A    between atoms: _22  and  _24
REMARK   11  A    between atoms: _24  and  _25
REMARK   12  A    between atoms: _24  and  _27
REMARK   13  A    between atoms: _27  and  _28
REMARK   14  A    between atoms: _28  and  _29
REMARK   15  A    between atoms: _32  and  _34
REMARK   16  A    between atoms: _34  and  _35
REMARK   17  A    between atoms: _34  and  _37
REMARK   18  A    between atoms: _37  and  _38
REMARK   19  A    between atoms: _38  and  _39
REMARK   20  A    between atoms: _42  and  _44
REMARK   21  A    between atoms: _44  and  _45
REMARK   22  A    between atoms: _44  and  _47
REMARK   23  A    between atoms: _47  and  _48
REMARK   24  A    between atoms: _51  and  _53
REMARK   25  A    between atoms: _53  and  _54
REMARK   26  A    between atoms: _53  and  _56
REMARK   27  A    between atoms: _56  and  _57
REMARK   28  A    between atoms: _61  and  NI_325
REMARK   29  A    between atoms: _62  and  _64
REMARK   30  A    between atoms: _64  and  _65
REMARK   31  A    between atoms: _64  and  _67
REMARK   32  A    between atoms: _67  and  _68
REMARK   33  A    between atoms: _71  and  _73
REMARK   34  A    between atoms: _73  and  _74
REMARK   35  A    between atoms: _73  and  _76
REMARK   36  A    between atoms: _76  and  _77
REMARK   37  A    between atoms: _82  and  _83
REMARK   38  A    between atoms: _85  and  _87
REMARK   39  A    between atoms: _87  and  _88
REMARK   40  A    between atoms: _87  and  _90
REMARK   41  A    between atoms: _90  and  _91
REMARK   42  A    between atoms: _91  and  _92
REMARK   43  A    between atoms: _92  and  _93
REMARK   44  A    between atoms: _102  and  _104
REMARK   45  A    between atoms: _104  and  _105
REMARK   46  A    between atoms: _108  and  _110
REMARK   47  A    between atoms: _110  and  _111
REMARK   48  A    between atoms: _110  and  _113
REMARK   49  A    between atoms: _113  and  _114
REMARK   50  A    between atoms: _114  and  _115
REMARK   51  A    between atoms: _117  and  _119
REMARK   52  A    between atoms: _119  and  _120
REMARK   53  A    between atoms: _119  and  _122
REMARK   54  A    between atoms: _122  and  _123
REMARK   55  A    between atoms: _123  and  _124
REMARK   56  A    between atoms: _126  and  _128
REMARK   57  A    between atoms: _128  and  _129
REMARK   58  A    between atoms: _128  and  _131
REMARK   59  A    between atoms: _131  and  _132
REMARK   60  A    between atoms: _137  and  _139
REMARK   61  A    between atoms: _139  and  _140
REMARK   62  A    between atoms: _139  and  _142
REMARK   63  A    between atoms: _142  and  _143
REMARK   64  A    between atoms: _146  and  _148
REMARK   65  A    between atoms: _148  and  _149
REMARK   66  A    between atoms: _148  and  _151
REMARK   67  A    between atoms: _151  and  _152
REMARK   68  A    between atoms: _152  and  _153
REMARK   69  A    between atoms: _153  and  _154
REMARK   70  A    between atoms: _163  and  _165
REMARK   71  A    between atoms: _165  and  _166
REMARK   72  A    between atoms: _169  and  _171
REMARK   73  A    between atoms: _171  and  _172
REMARK   74  A    between atoms: _174  and  _176
REMARK   75  A    between atoms: _176  and  _177
REMARK   76  A    between atoms: _176  and  _179
REMARK   77  A    between atoms: _179  and  _180
REMARK   78  A    between atoms: _186  and  _188
REMARK   79  A    between atoms: _188  and  _189
REMARK   80  A    between atoms: _188  and  _191
REMARK   81  A    between atoms: _191  and  _192
REMARK   82  A    between atoms: _197  and  _198
REMARK   83  A    between atoms: _200  and  _202
REMARK   84  A    between atoms: _202  and  _203
REMARK   85  A    between atoms: _202  and  _205
REMARK   86  A    between atoms: _205  and  _206
REMARK   87  A    between atoms: _212  and  _214
REMARK   88  A    between atoms: _214  and  _215
REMARK   89  A    between atoms: _214  and  _217
REMARK   90  A    between atoms: _217  and  _218
REMARK   91  A    between atoms: _221  and  _223
REMARK   92  A    between atoms: _223  and  _224
REMARK   93  A    between atoms: _223  and  _226
REMARK   94  A    between atoms: _226  and  _227
REMARK   95  A    between atoms: _230  and  _232
REMARK   96  A    between atoms: _232  and  _233
REMARK   97  A    between atoms: _235  and  _237
REMARK   98  A    between atoms: _237  and  _238
REMARK   99  A    between atoms: _237  and  _240
REMARK  100  A    between atoms: _240  and  _241
REMARK  101  A    between atoms: _251  and  _253
REMARK  102  A    between atoms: _253  and  _254
REMARK  103  A    between atoms: _256  and  _258
REMARK  104  A    between atoms: _258  and  _259
REMARK  105  A    between atoms: _258  and  _261
REMARK  106  A    between atoms: _261  and  _262
REMARK  107  A    between atoms: _267  and  _269
REMARK  108  A    between atoms: _269  and  _270
REMARK  109  A    between atoms: _269  and  _272
REMARK  110  A    between atoms: _275  and  _277
REMARK  111  A    between atoms: _277  and  _278
REMARK  112  A    between atoms: _277  and  _280
REMARK  113  A    between atoms: _280  and  _281
REMARK  114  A    between atoms: _291  and  _293
REMARK  115  A    between atoms: _293  and  _294
REMARK  116  A    between atoms: _293  and  _296
REMARK  117  A    between atoms: _296  and  _297
REMARK  118  A    between atoms: _303  and  _305
REMARK  119  A    between atoms: _316  and  _317
REMARK                            x       y       z     vdW  Elec       q    Type
REMARK                         _______ _______ _______ _____ _____    ______ ____
ROOT
ATOM      1  O   HOH     1     -72.037  -8.383  47.441  0.00  0.00    +0.000 OA
ENDROOT
TORSDOF 0
REMARK  Name = ../refined-set-2016/4oeu/4oeu_pocket.pdb
REMARK  119 active torsions:
REMARK  status: ('A' for Active; 'I' for Inactive)
REMARK    1  A    between atoms: _1  and  _3
REMARK    2  A    between atoms: _3  and  _4
REMARK    3  A    between atoms: _3  and  _6
REMARK    4  A    between atoms: _6  and  _7
REMARK    5  A    between atoms: _7  and  _8
REMARK    6  A    between atoms: _11  and  _13
REMARK    7  A    between atoms: _13  and  _14
REMARK    8  A    between atoms: _13  and  _16
REMARK    9  A    between atoms: _16  and  _17
REMARK   10  A    between atoms: _22  and  _24
REMARK   11  A    between atoms: _24  and  _25
REMARK   12  A    between atoms: _24  and  _27
REMARK   13  A    between atoms: _27  and  _28
REMARK   14  A    between atoms: _28  and  _29
REMARK   15  A    between atoms: _32  and  _34
REMARK   16  A    between atoms: _34  and  _35
REMARK   17  A    between atoms: _34  and  _37
REMARK   18  A    between atoms: _37  and  _38
REMARK   19  A    between atoms: _38  and  _39
REMARK   20  A    between atoms: _42  and  _44
REMARK   21  A    between atoms: _44  and  _45
REMARK   22  A    between atoms: _44  and  _47
REMARK   23  A    between atoms: _47  and  _48
REMARK   24  A    between atoms: _51  and  _53
REMARK   25  A    between atoms: _53  and  _54
REMARK   26  A    between atoms: _53  and  _56
REMARK   27  A    between atoms: _56  and  _57
REMARK   28  A    between atoms: _61  and  NI_325
REMARK   29  A    between atoms: _62  and  _64
REMARK   30  A    between atoms: _64  and  _65
REMARK   31  A    between atoms: _64  and  _67
REMARK   32  A    between atoms: _67  and  _68
REMARK   33  A    between atoms: _71  and  _73
REMARK   34  A    between atoms: _73  and  _74
REMARK   35  A    between atoms: _73  and  _76
REMARK   36  A    between atoms: _76  and  _77
REMARK   37  A    between atoms: _82  and  _83
REMARK   38  A    between atoms: _85  and  _87
REMARK   39  A    between atoms: _87  and  _88
REMARK   40  A    between atoms: _87  and  _90
REMARK   41  A    between atoms: _90  and  _91
REMARK   42  A    between atoms: _91  and  _92
REMARK   43  A    between atoms: _92  and  _93
REMARK   44  A    between atoms: _102  and  _104
REMARK   45  A    between atoms: _104  and  _105
REMARK   46  A    between atoms: _108  and  _110
REMARK   47  A    between atoms: _110  and  _111
REMARK   48  A    between atoms: _110  and  _113
REMARK   49  A    between atoms: _113  and  _114
REMARK   50  A    between atoms: _114  and  _115
REMARK   51  A    between atoms: _117  and  _119
REMARK   52  A    between atoms: _119  and  _120
REMARK   53  A    between atoms: _119  and  _122
REMARK   54  A    between atoms: _122  and  _123
REMARK   55  A    between atoms: _123  and  _124
REMARK   56  A    between atoms: _126  and  _128
REMARK   57  A    between atoms: _128  and  _129
REMARK   58  A    between atoms: _128  and  _131
REMARK   59  A    between atoms: _131  and  _132
REMARK   60  A    between atoms: _137  and  _139
REMARK   61  A    between atoms: _139  and  _140
REMARK   62  A    between atoms: _139  and  _142
REMARK   63  A    between atoms: _142  and  _143
REMARK   64  A    between atoms: _146  and  _148
REMARK   65  A    between atoms: _148  and  _149
REMARK   66  A    between atoms: _148  and  _151
REMARK   67  A    between atoms: _151  and  _152
REMARK   68  A    between atoms: _152  and  _153
REMARK   69  A    between atoms: _153  and  _154
REMARK   70  A    between atoms: _163  and  _165
REMARK   71  A    between atoms: _165  and  _166
REMARK   72  A    between atoms: _169  and  _171
REMARK   73  A    between atoms: _171  and  _172
REMARK   74  A    between atoms: _174  and  _176
REMARK   75  A    between atoms: _176  and  _177
REMARK   76  A    between atoms: _176  and  _179
REMARK   77  A    between atoms: _179  and  _180
REMARK   78  A    between atoms: _186  and  _188
REMARK   79  A    between atoms: _188  and  _189
REMARK   80  A    between atoms: _188  and  _191
REMARK   81  A    between atoms: _191  and  _192
REMARK   82  A    between atoms: _197  and  _198
REMARK   83  A    between atoms: _200  and  _202
REMARK   84  A    between atoms: _202  and  _203
REMARK   85  A    between atoms: _202  and  _205
REMARK   86  A    between atoms: _205  and  _206
REMARK   87  A    between atoms: _212  and  _214
REMARK   88  A    between atoms: _214  and  _215
REMARK   89  A    between atoms: _214  and  _217
REMARK   90  A    between atoms: _217  and  _218
REMARK   91  A    between atoms: _221  and  _223
REMARK   92  A    between atoms: _223  and  _224
REMARK   93  A    between atoms: _223  and  _226
REMARK   94  A    between atoms: _226  and  _227
REMARK   95  A    between atoms: _230  and  _232
REMARK   96  A    between atoms: _232  and  _233
REMARK   97  A    between atoms: _235  and  _237
REMARK   98  A    between atoms: _237  and  _238
REMARK   99  A    between atoms: _237  and  _240
REMARK  100  A    between atoms: _240  and  _241
REMARK  101  A    between atoms: _251  and  _253
REMARK  102  A    between atoms: _253  and  _254
REMARK  103  A    between atoms: _256  and  _258
REMARK  104  A    between atoms: _258  and  _259
REMARK  105  A    between atoms: _258  and  _261
REMARK  106  A    between atoms: _261  and  _262
REMARK  107  A    between atoms: _267  and  _269
REMARK  108  A    between atoms: _269  and  _270
REMARK  109  A    between atoms: _269  and  _272
REMARK  110  A    between atoms: _275  and  _277
REMARK  111  A    between atoms: _277  and  _278
REMARK  112  A    between atoms: _277  and  _280
REMARK  113  A    between atoms: _280  and  _281
REMARK  114  A    between atoms: _291  and  _293
REMARK  115  A    between atoms: _293  and  _294
REMARK  116  A    between atoms: _293  and  _296
REMARK  117  A    between atoms: _296  and  _297
REMARK  118  A    between atoms: _303  and  _305
REMARK  119  A    between atoms: _316  and  _317
REMARK                            x       y       z     vdW  Elec       q    Type
REMARK                         _______ _______ _______ _____ _____    ______ ____
ROOT
ATOM      1  O   HOH     1     -80.279 -17.743  41.837  0.00  0.00    +0.000 OA
ENDROOT
TORSDOF 0
REMARK  Name = ../refined-set-2016/4oeu/4oeu_pocket.pdb
REMARK  119 active torsions:
REMARK  status: ('A' for Active; 'I' for Inactive)
REMARK    1  A    between atoms: _1  and  _3
REMARK    2  A    between atoms: _3  and  _4
REMARK    3  A    between atoms: _3  and  _6
REMARK    4  A    between atoms: _6  and  _7
REMARK    5  A    between atoms: _7  and  _8
REMARK    6  A    between atoms: _11  and  _13
REMARK    7  A    between atoms: _13  and  _14
REMARK    8  A    between atoms: _13  and  _16
REMARK    9  A    between atoms: _16  and  _17
REMARK   10  A    between atoms: _22  and  _24
REMARK   11  A    between atoms: _24  and  _25
REMARK   12  A    between atoms: _24  and  _27
REMARK   13  A    between atoms: _27  and  _28
REMARK   14  A    between atoms: _28  and  _29
REMARK   15  A    between atoms: _32  and  _34
REMARK   16  A    between atoms: _34  and  _35
REMARK   17  A    between atoms: _34  and  _37
REMARK   18  A    between atoms: _37  and  _38
REMARK   19  A    between atoms: _38  and  _39
REMARK   20  A    between atoms: _42  and  _44
REMARK   21  A    between atoms: _44  and  _45
REMARK   22  A    between atoms: _44  and  _47
REMARK   23  A    between atoms: _47  and  _48
REMARK   24  A    between atoms: _51  and  _53
REMARK   25  A    between atoms: _53  and  _54
REMARK   26  A    between atoms: _53  and  _56
REMARK   27  A    between atoms: _56  and  _57
REMARK   28  A    between atoms: _61  and  NI_325
REMARK   29  A    between atoms: _62  and  _64
REMARK   30  A    between atoms: _64  and  _65
REMARK   31  A    between atoms: _64  and  _67
REMARK   32  A    between atoms: _67  and  _68
REMARK   33  A    between atoms: _71  and  _73
REMARK   34  A    between atoms: _73  and  _74
REMARK   35  A    between atoms: _73  and  _76
REMARK   36  A    between atoms: _76  and  _77
REMARK   37  A    between atoms: _82  and  _83
REMARK   38  A    between atoms: _85  and  _87
REMARK   39  A    between atoms: _87  and  _88
REMARK   40  A    between atoms: _87  and  _90
REMARK   41  A    between atoms: _90  and  _91
REMARK   42  A    between atoms: _91  and  _92
REMARK   43  A    between atoms: _92  and  _93
REMARK   44  A    between atoms: _102  and  _104
REMARK   45  A    between atoms: _104  and  _105
REMARK   46  A    between atoms: _108  and  _110
REMARK   47  A    between atoms: _110  and  _111
REMARK   48  A    between atoms: _110  and  _113
REMARK   49  A    between atoms: _113  and  _114
REMARK   50  A    between atoms: _114  and  _115
REMARK   51  A    between atoms: _117  and  _119
REMARK   52  A    between atoms: _119  and  _120
REMARK   53  A    between atoms: _119  and  _122
REMARK   54  A    between atoms: _122  and  _123
REMARK   55  A    between atoms: _123  and  _124
REMARK   56  A    between atoms: _126  and  _128
REMARK   57  A    between atoms: _128  and  _129
REMARK   58  A    between atoms: _128  and  _131
REMARK   59  A    between atoms: _131  and  _132
REMARK   60  A    between atoms: _137  and  _139
REMARK   61  A    between atoms: _139  and  _140
REMARK   62  A    between atoms: _139  and  _142
REMARK   63  A    between atoms: _142  and  _143
REMARK   64  A    between atoms: _146  and  _148
REMARK   65  A    between atoms: _148  and  _149
REMARK   66  A    between atoms: _148  and  _151
REMARK   67  A    between atoms: _151  and  _152
REMARK   68  A    between atoms: _152  and  _153
REMARK   69  A    between atoms: _153  and  _154
REMARK   70  A    between atoms: _163  and  _165
REMARK   71  A    between atoms: _165  and  _166
REMARK   72  A    between atoms: _169  and  _171
REMARK   73  A    between atoms: _171  and  _172
REMARK   74  A    between atoms: _174  and  _176
REMARK   75  A    between atoms: _176  and  _177
REMARK   76  A    between atoms: _176  and  _179
REMARK   77  A    between atoms: _179  and  _180
REMARK   78  A    between atoms: _186  and  _188
REMARK   79  A    between atoms: _188  and  _189
REMARK   80  A    between atoms: _188  and  _191
REMARK   81  A    between atoms: _191  and  _192
REMARK   82  A    between atoms: _197  and  _198
REMARK   83  A    between atoms: _200  and  _202
REMARK   84  A    between atoms: _202  and  _203
REMARK   85  A    between atoms: _202  and  _205
REMARK   86  A    between atoms: _205  and  _206
REMARK   87  A    between atoms: _212  and  _214
REMARK   88  A    between atoms: _214  and  _215
REMARK   89  A    between atoms: _214  and  _217
REMARK   90  A    between atoms: _217  and  _218
REMARK   91  A    between atoms: _221  and  _223
REMARK   92  A    between atoms: _223  and  _224
REMARK   93  A    between atoms: _223  and  _226
REMARK   94  A    between atoms: _226  and  _227
REMARK   95  A    between atoms: _230  and  _232
REMARK   96  A    between atoms: _232  and  _233
REMARK   97  A    between atoms: _235  and  _237
REMARK   98  A    between atoms: _237  and  _238
REMARK   99  A    between atoms: _237  and  _240
REMARK  100  A    between atoms: _240  and  _241
REMARK  101  A    between atoms: _251  and  _253
REMARK  102  A    between atoms: _253  and  _254
REMARK  103  A    between atoms: _256  and  _258
REMARK  104  A    between atoms: _258  and  _259
REMARK  105  A    between atoms: _258  and  _261
REMARK  106  A    between atoms: _261  and  _262
REMARK  107  A    between atoms: _267  and  _269
REMARK  108  A    between atoms: _269  and  _270
REMARK  109  A    between atoms: _269  and  _272
REMARK  110  A    between atoms: _275  and  _277
REMARK  111  A    between atoms: _277  and  _278
REMARK  112  A    between atoms: _277  and  _280
REMARK  113  A    between atoms: _280  and  _281
REMARK  114  A    between atoms: _291  and  _293
REMARK  115  A    between atoms: _293  and  _294
REMARK  116  A    between atoms: _293  and  _296
REMARK  117  A    between atoms: _296  and  _297
REMARK  118  A    between atoms: _303  and  _305
REMARK  119  A    between atoms: _316  and  _317
REMARK                            x       y       z     vdW  Elec       q    Type
REMARK                         _______ _______ _______ _____ _____    ______ ____
ROOT
ATOM      1  O   HOH     1     -85.649  -6.974  44.719  0.00  0.00    +0.000 OA
ENDROOT
TORSDOF 0
REMARK  Name = ../refined-set-2016/4oeu/4oeu_pocket.pdb
REMARK  119 active torsions:
REMARK  status: ('A' for Active; 'I' for Inactive)
REMARK    1  A    between atoms: _1  and  _3
REMARK    2  A    between atoms: _3  and  _4
REMARK    3  A    between atoms: _3  and  _6
REMARK    4  A    between atoms: _6  and  _7
REMARK    5  A    between atoms: _7  and  _8
REMARK    6  A    between atoms: _11  and  _13
REMARK    7  A    between atoms: _13  and  _14
REMARK    8  A    between atoms: _13  and  _16
REMARK    9  A    between atoms: _16  and  _17
REMARK   10  A    between atoms: _22  and  _24
REMARK   11  A    between atoms: _24  and  _25
REMARK   12  A    between atoms: _24  and  _27
REMARK   13  A    between atoms: _27  and  _28
REMARK   14  A    between atoms: _28  and  _29
REMARK   15  A    between atoms: _32  and  _34
REMARK   16  A    between atoms: _34  and  _35
REMARK   17  A    between atoms: _34  and  _37
REMARK   18  A    between atoms: _37  and  _38
REMARK   19  A    between atoms: _38  and  _39
REMARK   20  A    between atoms: _42  and  _44
REMARK   21  A    between atoms: _44  and  _45
REMARK   22  A    between atoms: _44  and  _47
REMARK   23  A    between atoms: _47  and  _48
REMARK   24  A    between atoms: _51  and  _53
REMARK   25  A    between atoms: _53  and  _54
REMARK   26  A    between atoms: _53  and  _56
REMARK   27  A    between atoms: _56  and  _57
REMARK   28  A    between atoms: _61  and  NI_325
REMARK   29  A    between atoms: _62  and  _64
REMARK   30  A    between atoms: _64  and  _65
REMARK   31  A    between atoms: _64  and  _67
REMARK   32  A    between atoms: _67  and  _68
REMARK   33  A    between atoms: _71  and  _73
REMARK   34  A    between atoms: _73  and  _74
REMARK   35  A    between atoms: _73  and  _76
REMARK   36  A    between atoms: _76  and  _77
REMARK   37  A    between atoms: _82  and  _83
REMARK   38  A    between atoms: _85  and  _87
REMARK   39  A    between atoms: _87  and  _88
REMARK   40  A    between atoms: _87  and  _90
REMARK   41  A    between atoms: _90  and  _91
REMARK   42  A    between atoms: _91  and  _92
REMARK   43  A    between atoms: _92  and  _93
REMARK   44  A    between atoms: _102  and  _104
REMARK   45  A    between atoms: _104  and  _105
REMARK   46  A    between atoms: _108  and  _110
REMARK   47  A    between atoms: _110  and  _111
REMARK   48  A    between atoms: _110  and  _113
REMARK   49  A    between atoms: _113  and  _114
REMARK   50  A    between atoms: _114  and  _115
REMARK   51  A    between atoms: _117  and  _119
REMARK   52  A    between atoms: _119  and  _120
REMARK   53  A    between atoms: _119  and  _122
REMARK   54  A    between atoms: _122  and  _123
REMARK   55  A    between atoms: _123  and  _124
REMARK   56  A    between atoms: _126  and  _128
REMARK   57  A    between atoms: _128  and  _129
REMARK   58  A    between atoms: _128  and  _131
REMARK   59  A    between atoms: _131  and  _132
REMARK   60  A    between atoms: _137  and  _139
REMARK   61  A    between atoms: _139  and  _140
REMARK   62  A    between atoms: _139  and  _142
REMARK   63  A    between atoms: _142  and  _143
REMARK   64  A    between atoms: _146  and  _148
REMARK   65  A    between atoms: _148  and  _149
REMARK   66  A    between atoms: _148  and  _151
REMARK   67  A    between atoms: _151  and  _152
REMARK   68  A    between atoms: _152  and  _153
REMARK   69  A    between atoms: _153  and  _154
REMARK   70  A    between atoms: _163  and  _165
REMARK   71  A    between atoms: _165  and  _166
REMARK   72  A    between atoms: _169  and  _171
REMARK   73  A    between atoms: _171  and  _172
REMARK   74  A    between atoms: _174  and  _176
REMARK   75  A    between atoms: _176  and  _177
REMARK   76  A    between atoms: _176  and  _179
REMARK   77  A    between atoms: _179  and  _180
REMARK   78  A    between atoms: _186  and  _188
REMARK   79  A    between atoms: _188  and  _189
REMARK   80  A    between atoms: _188  and  _191
REMARK   81  A    between atoms: _191  and  _192
REMARK   82  A    between atoms: _197  and  _198
REMARK   83  A    between atoms: _200  and  _202
REMARK   84  A    between atoms: _202  and  _203
REMARK   85  A    between atoms: _202  and  _205
REMARK   86  A    between atoms: _205  and  _206
REMARK   87  A    between atoms: _212  and  _214
REMARK   88  A    between atoms: _214  and  _215
REMARK   89  A    between atoms: _214  and  _217
REMARK   90  A    between atoms: _217  and  _218
REMARK   91  A    between atoms: _221  and  _223
REMARK   92  A    between atoms: _223  and  _224
REMARK   93  A    between atoms: _223  and  _226
REMARK   94  A    between atoms: _226  and  _227
REMARK   95  A    between atoms: _230  and  _232
REMARK   96  A    between atoms: _232  and  _233
REMARK   97  A    between atoms: _235  and  _237
REMARK   98  A    between atoms: _237  and  _238
REMARK   99  A    between atoms: _237  and  _240
REMARK  100  A    between atoms: _240  and  _241
REMARK  101  A    between atoms: _251  and  _253
REMARK  102  A    between atoms: _253  and  _254
REMARK  103  A    between atoms: _256  and  _258
REMARK  104  A    between atoms: _258  and  _259
REMARK  105  A    between atoms: _258  and  _261
REMARK  106  A    between atoms: _261  and  _262
REMARK  107  A    between atoms: _267  and  _269
REMARK  108  A    between atoms: _269  and  _270
REMARK  109  A    between atoms: _269  and  _272
REMARK  110  A    between atoms: _275  and  _277
REMARK  111  A    between atoms: _277  and  _278
REMARK  112  A    between atoms: _277  and  _280
REMARK  113  A    between atoms: _280  and  _281
REMARK  114  A    between atoms: _291  and  _293
REMARK  115  A    between atoms: _293  and  _294
REMARK  116  A    between atoms: _293  and  _296
REMARK  117  A    between atoms: _296  and  _297
REMARK  118  A    between atoms: _303  and  _305
REMARK  119  A    between atoms: _316  and  _317
REMARK                            x       y       z     vdW  Elec       q    Type
REMARK                         _______ _______ _______ _____ _____    ______ ____
ROOT
ATOM      1  O   HOH     1     -78.622  -5.532  34.206  0.00  0.00    +0.000 OA
ENDROOT
TORSDOF 0
