REMARK  Name = ../refined-set-2016/1mes/1mes_pocket.pdb
REMARK  209 active torsions:
REMARK  status: ('A' for Active; 'I' for Inactive)
REMARK    1  A    between atoms: _1  and  _3
REMARK    2  A    between atoms: _3  and  _4
REMARK    3  A    between atoms: _3  and  _6
REMARK    4  A    between atoms: _6  and  _7
REMARK    5  A    between atoms: _7  and  _8
REMARK    6  A    between atoms: _8  and  _9
REMARK    7  A    between atoms: _18  and  _20
REMARK    8  A    between atoms: _20  and  _21
REMARK    9  A    between atoms: _20  and  _23
REMARK   10  A    between atoms: _23  and  _24
REMARK   11  A    between atoms: _27  and  _29
REMARK   12  A    between atoms: _29  and  _30
REMARK   13  A    between atoms: _29  and  _32
REMARK   14  A    between atoms: _32  and  _33
REMARK   15  A    between atoms: _36  and  _38
REMARK   16  A    between atoms: _38  and  _39
REMARK   17  A    between atoms: _38  and  _41
REMARK   18  A    between atoms: _41  and  _42
REMARK   19  A    between atoms: _45  and  _47
REMARK   20  A    between atoms: _47  and  _48
REMARK   21  A    between atoms: _47  and  _50
REMARK   22  A    between atoms: _50  and  _51
REMARK   23  A    between atoms: _54  and  _56
REMARK   24  A    between atoms: _56  and  _57
REMARK   25  A    between atoms: _59  and  _61
REMARK   26  A    between atoms: _61  and  _62
REMARK   27  A    between atoms: _65  and  _67
REMARK   28  A    between atoms: _67  and  _68
REMARK   29  A    between atoms: _67  and  _70
REMARK   30  A    between atoms: _70  and  _71
REMARK   31  A    between atoms: _74  and  _76
REMARK   32  A    between atoms: _76  and  _77
REMARK   33  A    between atoms: _76  and  _79
REMARK   34  A    between atoms: _79  and  _80
REMARK   35  A    between atoms: _83  and  _85
REMARK   36  A    between atoms: _85  and  _86
REMARK   37  A    between atoms: _85  and  _88
REMARK   38  A    between atoms: _88  and  _89
REMARK   39  A    between atoms: _92  and  _94
REMARK   40  A    between atoms: _94  and  _95
REMARK   41  A    between atoms: _94  and  _97
REMARK   42  A    between atoms: _100  and  _102
REMARK   43  A    between atoms: _102  and  _103
REMARK   44  A    between atoms: _102  and  _105
REMARK   45  A    between atoms: _105  and  _106
REMARK   46  A    between atoms: _106  and  _107
REMARK   47  A    between atoms: _107  and  _108
REMARK   48  A    between atoms: _108  and  _109
REMARK   49  A    between atoms: _113  and  _115
REMARK   50  A    between atoms: _115  and  _116
REMARK   51  A    between atoms: _115  and  _118
REMARK   52  A    between atoms: _118  and  _119
REMARK   53  A    between atoms: _122  and  _124
REMARK   54  A    between atoms: _124  and  _125
REMARK   55  A    between atoms: _127  and  _129
REMARK   56  A    between atoms: _129  and  _130
REMARK   57  A    between atoms: _132  and  _134
REMARK   58  A    between atoms: _134  and  _135
REMARK   59  A    between atoms: _134  and  _137
REMARK   60  A    between atoms: _137  and  _138
REMARK   61  A    between atoms: _141  and  _143
REMARK   62  A    between atoms: _143  and  _144
REMARK   63  A    between atoms: _146  and  _148
REMARK   64  A    between atoms: _148  and  _149
REMARK   65  A    between atoms: _151  and  _153
REMARK   66  A    between atoms: _153  and  _154
REMARK   67  A    between atoms: _153  and  _156
REMARK   68  A    between atoms: _156  and  _157
REMARK   69  A    between atoms: _160  and  _162
REMARK   70  A    between atoms: _162  and  _163
REMARK   71  A    between atoms: _162  and  _165
REMARK   72  A    between atoms: _168  and  _170
REMARK   73  A    between atoms: _170  and  _171
REMARK   74  A    between atoms: _170  and  _173
REMARK   75  A    between atoms: _173  and  _174
REMARK   76  A    between atoms: _178  and  _179
REMARK   77  A    between atoms: _184  and  _186
REMARK   78  A    between atoms: _186  and  _187
REMARK   79  A    between atoms: _186  and  _189
REMARK   80  A    between atoms: _189  and  _190
REMARK   81  A    between atoms: _194  and  _195
REMARK   82  A    between atoms: _200  and  _202
REMARK   83  A    between atoms: _202  and  _203
REMARK   84  A    between atoms: _202  and  _205
REMARK   85  A    between atoms: _208  and  _210
REMARK   86  A    between atoms: _210  and  _211
REMARK   87  A    between atoms: _210  and  _213
REMARK   88  A    between atoms: _213  and  _214
REMARK   89  A    between atoms: _219  and  _221
REMARK   90  A    between atoms: _221  and  _222
REMARK   91  A    between atoms: _221  and  _224
REMARK   92  A    between atoms: _227  and  _229
REMARK   93  A    between atoms: _229  and  _230
REMARK   94  A    between atoms: _229  and  _232
REMARK   95  A    between atoms: _232  and  _233
REMARK   96  A    between atoms: _236  and  _238
REMARK   97  A    between atoms: _238  and  _239
REMARK   98  A    between atoms: _241  and  _243
REMARK   99  A    between atoms: _243  and  _244
REMARK  100  A    between atoms: _243  and  _246
REMARK  101  A    between atoms: _246  and  _247
REMARK  102  A    between atoms: _247  and  _248
REMARK  103  A    between atoms: _248  and  _249
REMARK  104  A    between atoms: _258  and  _260
REMARK  105  A    between atoms: _260  and  _261
REMARK  106  A    between atoms: _260  and  _263
REMARK  107  A    between atoms: _263  and  _264
REMARK  108  A    between atoms: _269  and  _271
REMARK  109  A    between atoms: _271  and  _272
REMARK  110  A    between atoms: _271  and  _274
REMARK  111  A    between atoms: _274  and  _275
REMARK  112  A    between atoms: _275  and  _276
REMARK  113  A    between atoms: _276  and  _277
REMARK  114  A    between atoms: _286  and  _288
REMARK  115  A    between atoms: _288  and  _289
REMARK  116  A    between atoms: _288  and  _291
REMARK  117  A    between atoms: _291  and  _292
REMARK  118  A    between atoms: _295  and  _297
REMARK  119  A    between atoms: _297  and  _298
REMARK  120  A    between atoms: _297  and  _300
REMARK  121  A    between atoms: _300  and  _301
REMARK  122  A    between atoms: _304  and  _306
REMARK  123  A    between atoms: _306  and  _307
REMARK  124  A    between atoms: _306  and  _309
REMARK  125  A    between atoms: _309  and  _310
REMARK  126  A    between atoms: _313  and  _315
REMARK  127  A    between atoms: _315  and  _316
REMARK  128  A    between atoms: _315  and  _318
REMARK  129  A    between atoms: _318  and  _319
REMARK  130  A    between atoms: _322  and  _324
REMARK  131  A    between atoms: _324  and  _325
REMARK  132  A    between atoms: _327  and  _329
REMARK  133  A    between atoms: _329  and  _330
REMARK  134  A    between atoms: _333  and  _335
REMARK  135  A    between atoms: _335  and  _336
REMARK  136  A    between atoms: _335  and  _338
REMARK  137  A    between atoms: _338  and  _339
REMARK  138  A    between atoms: _342  and  _344
REMARK  139  A    between atoms: _344  and  _345
REMARK  140  A    between atoms: _344  and  _347
REMARK  141  A    between atoms: _347  and  _348
REMARK  142  A    between atoms: _351  and  _353
REMARK  143  A    between atoms: _353  and  _354
REMARK  144  A    between atoms: _353  and  _356
REMARK  145  A    between atoms: _356  and  _357
REMARK  146  A    between atoms: _360  and  _362
REMARK  147  A    between atoms: _362  and  _363
REMARK  148  A    between atoms: _362  and  _365
REMARK  149  A    between atoms: _368  and  _370
REMARK  150  A    between atoms: _370  and  _371
REMARK  151  A    between atoms: _370  and  _373
REMARK  152  A    between atoms: _373  and  _374
REMARK  153  A    between atoms: _374  and  _375
REMARK  154  A    between atoms: _377  and  _379
REMARK  155  A    between atoms: _379  and  _380
REMARK  156  A    between atoms: _379  and  _382
REMARK  157  A    between atoms: _382  and  _383
REMARK  158  A    between atoms: _386  and  _388
REMARK  159  A    between atoms: _388  and  _389
REMARK  160  A    between atoms: _391  and  _393
REMARK  161  A    between atoms: _393  and  _394
REMARK  162  A    between atoms: _396  and  _398
REMARK  163  A    between atoms: _398  and  _399
REMARK  164  A    between atoms: _398  and  _401
REMARK  165  A    between atoms: _401  and  _402
REMARK  166  A    between atoms: _405  and  _407
REMARK  167  A    between atoms: _407  and  _408
REMARK  168  A    between atoms: _410  and  _412
REMARK  169  A    between atoms: _412  and  _413
REMARK  170  A    between atoms: _415  and  _417
REMARK  171  A    between atoms: _417  and  _418
REMARK  172  A    between atoms: _417  and  _420
REMARK  173  A    between atoms: _420  and  _421
REMARK  174  A    between atoms: _424  and  _426
REMARK  175  A    between atoms: _426  and  _427
REMARK  176  A    between atoms: _426  and  _429
REMARK  177  A    between atoms: _429  and  _430
REMARK  178  A    between atoms: _434  and  _435
REMARK  179  A    between atoms: _440  and  _442
REMARK  180  A    between atoms: _442  and  _443
REMARK  181  A    between atoms: _442  and  _445
REMARK  182  A    between atoms: _445  and  _446
REMARK  183  A    between atoms: _450  and  _451
REMARK  184  A    between atoms: _456  and  _458
REMARK  185  A    between atoms: _458  and  _459
REMARK  186  A    between atoms: _458  and  _461
REMARK  187  A    between atoms: _464  and  _466
REMARK  188  A    between atoms: _466  and  _467
REMARK  189  A    between atoms: _466  and  _469
REMARK  190  A    between atoms: _469  and  _470
REMARK  191  A    between atoms: _475  and  _477
REMARK  192  A    between atoms: _477  and  _478
REMARK  193  A    between atoms: _477  and  _480
REMARK  194  A    between atoms: _483  and  _485
REMARK  195  A    between atoms: _485  and  _486
REMARK  196  A    between atoms: _485  and  _488
REMARK  197  A    between atoms: _488  and  _489
REMARK  198  A    between atoms: _492  and  _494
REMARK  199  A    between atoms: _494  and  _495
REMARK  200  A    between atoms: _497  and  _499
REMARK  201  A    between atoms: _499  and  _500
REMARK  202  A    between atoms: _499  and  _502
REMARK  203  A    between atoms: _502  and  _503
REMARK  204  A    between atoms: _503  and  _504
REMARK  205  A    between atoms: _504  and  _505
REMARK  206  A    between atoms: _514  and  _516
REMARK  207  A    between atoms: _516  and  _517
REMARK  208  A    between atoms: _516  and  _519
REMARK  209  A    between atoms: _519  and  _520
REMARK                            x       y       z     vdW  Elec       q    Type
REMARK                         _______ _______ _______ _____ _____    ______ ____
ROOT
ATOM      1  NE  ARG A   1      -3.819  24.589  23.042  0.00  0.00    -0.265 N 
ATOM      2  HE  ARG A   1      -4.168  24.775  24.004  0.00  0.00    +0.259 HD
ATOM      3  CZ  ARG A   1      -3.121  23.468  22.771  0.00  0.00    +0.342 C 
ATOM      4  NH2 ARG A   1      -2.885  22.581  23.742  0.00  0.00    -0.292 N 
ATOM      5 HH21 ARG A   1      -3.240  22.756  24.704  0.00  0.00    +0.255 HD
ATOM      6 HH22 ARG A   1      -2.347  21.715  23.536  0.00  0.00    +0.255 HD
ATOM      7  NH1 ARG A   1      -2.664  23.221  21.534  0.00  0.00    -0.292 N 
ATOM      8 HH11 ARG A   1      -2.127  22.351  21.342  0.00  0.00    +0.255 HD
ATOM      9 HH12 ARG A   1      -2.847  23.899  20.767  0.00  0.00    +0.255 HD
ENDROOT
BRANCH   1  10
ATOM     10  CD  ARG A   1      -4.078  25.542  21.959  0.00  0.00    +0.174 C 
BRANCH  10  11
ATOM     11  CG  ARG A   1      -5.445  26.236  22.058  0.00  0.00    +0.045 C 
BRANCH  11  12
ATOM     12  CB  ARG A   1      -5.544  27.389  23.051  0.00  0.00    +0.029 C 
BRANCH  12  13
ATOM     13  CA  ARG A   1      -6.762  28.253  22.744  0.00  0.00    +0.133 C 
BRANCH  13  14
ATOM     14  N   ARG A   1      -6.570  28.921  21.448  0.00  0.00    -0.239 NA
ATOM     15  H   ARG A   1      -5.702  28.755  20.900  0.00  0.00    +0.142 HD
ENDBRANCH  13  14
BRANCH  13  16
ATOM     16  C   ARG A   1      -6.873  29.287  23.829  0.00  0.00    +0.224 C 
ATOM     17  O   ARG A   1      -6.108  30.238  23.802  0.00  0.00    -0.287 OA
ENDBRANCH  13  16
ENDBRANCH  12  13
ENDBRANCH  11  12
ENDBRANCH  10  11
ENDBRANCH   1  10
TORSDOF 6
REMARK  Name = ../refined-set-2016/1mes/1mes_pocket.pdb
REMARK  209 active torsions:
REMARK  status: ('A' for Active; 'I' for Inactive)
REMARK    1  A    between atoms: _1  and  _3
REMARK    2  A    between atoms: _3  and  _4
REMARK    3  A    between atoms: _3  and  _6
REMARK    4  A    between atoms: _6  and  _7
REMARK    5  A    between atoms: _7  and  _8
REMARK    6  A    between atoms: _8  and  _9
REMARK    7  A    between atoms: _18  and  _20
REMARK    8  A    between atoms: _20  and  _21
REMARK    9  A    between atoms: _20  and  _23
REMARK   10  A    between atoms: _23  and  _24
REMARK   11  A    between atoms: _27  and  _29
REMARK   12  A    between atoms: _29  and  _30
REMARK   13  A    between atoms: _29  and  _32
REMARK   14  A    between atoms: _32  and  _33
REMARK   15  A    between atoms: _36  and  _38
REMARK   16  A    between atoms: _38  and  _39
REMARK   17  A    between atoms: _38  and  _41
REMARK   18  A    between atoms: _41  and  _42
REMARK   19  A    between atoms: _45  and  _47
REMARK   20  A    between atoms: _47  and  _48
REMARK   21  A    between atoms: _47  and  _50
REMARK   22  A    between atoms: _50  and  _51
REMARK   23  A    between atoms: _54  and  _56
REMARK   24  A    between atoms: _56  and  _57
REMARK   25  A    between atoms: _59  and  _61
REMARK   26  A    between atoms: _61  and  _62
REMARK   27  A    between atoms: _65  and  _67
REMARK   28  A    between atoms: _67  and  _68
REMARK   29  A    between atoms: _67  and  _70
REMARK   30  A    between atoms: _70  and  _71
REMARK   31  A    between atoms: _74  and  _76
REMARK   32  A    between atoms: _76  and  _77
REMARK   33  A    between atoms: _76  and  _79
REMARK   34  A    between atoms: _79  and  _80
REMARK   35  A    between atoms: _83  and  _85
REMARK   36  A    between atoms: _85  and  _86
REMARK   37  A    between atoms: _85  and  _88
REMARK   38  A    between atoms: _88  and  _89
REMARK   39  A    between atoms: _92  and  _94
REMARK   40  A    between atoms: _94  and  _95
REMARK   41  A    between atoms: _94  and  _97
REMARK   42  A    between atoms: _100  and  _102
REMARK   43  A    between atoms: _102  and  _103
REMARK   44  A    between atoms: _102  and  _105
REMARK   45  A    between atoms: _105  and  _106
REMARK   46  A    between atoms: _106  and  _107
REMARK   47  A    between atoms: _107  and  _108
REMARK   48  A    between atoms: _108  and  _109
REMARK   49  A    between atoms: _113  and  _115
REMARK   50  A    between atoms: _115  and  _116
REMARK   51  A    between atoms: _115  and  _118
REMARK   52  A    between atoms: _118  and  _119
REMARK   53  A    between atoms: _122  and  _124
REMARK   54  A    between atoms: _124  and  _125
REMARK   55  A    between atoms: _127  and  _129
REMARK   56  A    between atoms: _129  and  _130
REMARK   57  A    between atoms: _132  and  _134
REMARK   58  A    between atoms: _134  and  _135
REMARK   59  A    between atoms: _134  and  _137
REMARK   60  A    between atoms: _137  and  _138
REMARK   61  A    between atoms: _141  and  _143
REMARK   62  A    between atoms: _143  and  _144
REMARK   63  A    between atoms: _146  and  _148
REMARK   64  A    between atoms: _148  and  _149
REMARK   65  A    between atoms: _151  and  _153
REMARK   66  A    between atoms: _153  and  _154
REMARK   67  A    between atoms: _153  and  _156
REMARK   68  A    between atoms: _156  and  _157
REMARK   69  A    between atoms: _160  and  _162
REMARK   70  A    between atoms: _162  and  _163
REMARK   71  A    between atoms: _162  and  _165
REMARK   72  A    between atoms: _168  and  _170
REMARK   73  A    between atoms: _170  and  _171
REMARK   74  A    between atoms: _170  and  _173
REMARK   75  A    between atoms: _173  and  _174
REMARK   76  A    between atoms: _178  and  _179
REMARK   77  A    between atoms: _184  and  _186
REMARK   78  A    between atoms: _186  and  _187
REMARK   79  A    between atoms: _186  and  _189
REMARK   80  A    between atoms: _189  and  _190
REMARK   81  A    between atoms: _194  and  _195
REMARK   82  A    between atoms: _200  and  _202
REMARK   83  A    between atoms: _202  and  _203
REMARK   84  A    between atoms: _202  and  _205
REMARK   85  A    between atoms: _208  and  _210
REMARK   86  A    between atoms: _210  and  _211
REMARK   87  A    between atoms: _210  and  _213
REMARK   88  A    between atoms: _213  and  _214
REMARK   89  A    between atoms: _219  and  _221
REMARK   90  A    between atoms: _221  and  _222
REMARK   91  A    between atoms: _221  and  _224
REMARK   92  A    between atoms: _227  and  _229
REMARK   93  A    between atoms: _229  and  _230
REMARK   94  A    between atoms: _229  and  _232
REMARK   95  A    between atoms: _232  and  _233
REMARK   96  A    between atoms: _236  and  _238
REMARK   97  A    between atoms: _238  and  _239
REMARK   98  A    between atoms: _241  and  _243
REMARK   99  A    between atoms: _243  and  _244
REMARK  100  A    between atoms: _243  and  _246
REMARK  101  A    between atoms: _246  and  _247
REMARK  102  A    between atoms: _247  and  _248
REMARK  103  A    between atoms: _248  and  _249
REMARK  104  A    between atoms: _258  and  _260
REMARK  105  A    between atoms: _260  and  _261
REMARK  106  A    between atoms: _260  and  _263
REMARK  107  A    between atoms: _263  and  _264
REMARK  108  A    between atoms: _269  and  _271
REMARK  109  A    between atoms: _271  and  _272
REMARK  110  A    between atoms: _271  and  _274
REMARK  111  A    between atoms: _274  and  _275
REMARK  112  A    between atoms: _275  and  _276
REMARK  113  A    between atoms: _276  and  _277
REMARK  114  A    between atoms: _286  and  _288
REMARK  115  A    between atoms: _288  and  _289
REMARK  116  A    between atoms: _288  and  _291
REMARK  117  A    between atoms: _291  and  _292
REMARK  118  A    between atoms: _295  and  _297
REMARK  119  A    between atoms: _297  and  _298
REMARK  120  A    between atoms: _297  and  _300
REMARK  121  A    between atoms: _300  and  _301
REMARK  122  A    between atoms: _304  and  _306
REMARK  123  A    between atoms: _306  and  _307
REMARK  124  A    between atoms: _306  and  _309
REMARK  125  A    between atoms: _309  and  _310
REMARK  126  A    between atoms: _313  and  _315
REMARK  127  A    between atoms: _315  and  _316
REMARK  128  A    between atoms: _315  and  _318
REMARK  129  A    between atoms: _318  and  _319
REMARK  130  A    between atoms: _322  and  _324
REMARK  131  A    between atoms: _324  and  _325
REMARK  132  A    between atoms: _327  and  _329
REMARK  133  A    between atoms: _329  and  _330
REMARK  134  A    between atoms: _333  and  _335
REMARK  135  A    between atoms: _335  and  _336
REMARK  136  A    between atoms: _335  and  _338
REMARK  137  A    between atoms: _338  and  _339
REMARK  138  A    between atoms: _342  and  _344
REMARK  139  A    between atoms: _344  and  _345
REMARK  140  A    between atoms: _344  and  _347
REMARK  141  A    between atoms: _347  and  _348
REMARK  142  A    between atoms: _351  and  _353
REMARK  143  A    between atoms: _353  and  _354
REMARK  144  A    between atoms: _353  and  _356
REMARK  145  A    between atoms: _356  and  _357
REMARK  146  A    between atoms: _360  and  _362
REMARK  147  A    between atoms: _362  and  _363
REMARK  148  A    between atoms: _362  and  _365
REMARK  149  A    between atoms: _368  and  _370
REMARK  150  A    between atoms: _370  and  _371
REMARK  151  A    between atoms: _370  and  _373
REMARK  152  A    between atoms: _373  and  _374
REMARK  153  A    between atoms: _374  and  _375
REMARK  154  A    between atoms: _377  and  _379
REMARK  155  A    between atoms: _379  and  _380
REMARK  156  A    between atoms: _379  and  _382
REMARK  157  A    between atoms: _382  and  _383
REMARK  158  A    between atoms: _386  and  _388
REMARK  159  A    between atoms: _388  and  _389
REMARK  160  A    between atoms: _391  and  _393
REMARK  161  A    between atoms: _393  and  _394
REMARK  162  A    between atoms: _396  and  _398
REMARK  163  A    between atoms: _398  and  _399
REMARK  164  A    between atoms: _398  and  _401
REMARK  165  A    between atoms: _401  and  _402
REMARK  166  A    between atoms: _405  and  _407
REMARK  167  A    between atoms: _407  and  _408
REMARK  168  A    between atoms: _410  and  _412
REMARK  169  A    between atoms: _412  and  _413
REMARK  170  A    between atoms: _415  and  _417
REMARK  171  A    between atoms: _417  and  _418
REMARK  172  A    between atoms: _417  and  _420
REMARK  173  A    between atoms: _420  and  _421
REMARK  174  A    between atoms: _424  and  _426
REMARK  175  A    between atoms: _426  and  _427
REMARK  176  A    between atoms: _426  and  _429
REMARK  177  A    between atoms: _429  and  _430
REMARK  178  A    between atoms: _434  and  _435
REMARK  179  A    between atoms: _440  and  _442
REMARK  180  A    between atoms: _442  and  _443
REMARK  181  A    between atoms: _442  and  _445
REMARK  182  A    between atoms: _445  and  _446
REMARK  183  A    between atoms: _450  and  _451
REMARK  184  A    between atoms: _456  and  _458
REMARK  185  A    between atoms: _458  and  _459
REMARK  186  A    between atoms: _458  and  _461
REMARK  187  A    between atoms: _464  and  _466
REMARK  188  A    between atoms: _466  and  _467
REMARK  189  A    between atoms: _466  and  _469
REMARK  190  A    between atoms: _469  and  _470
REMARK  191  A    between atoms: _475  and  _477
REMARK  192  A    between atoms: _477  and  _478
REMARK  193  A    between atoms: _477  and  _480
REMARK  194  A    between atoms: _483  and  _485
REMARK  195  A    between atoms: _485  and  _486
REMARK  196  A    between atoms: _485  and  _488
REMARK  197  A    between atoms: _488  and  _489
REMARK  198  A    between atoms: _492  and  _494
REMARK  199  A    between atoms: _494  and  _495
REMARK  200  A    between atoms: _497  and  _499
REMARK  201  A    between atoms: _499  and  _500
REMARK  202  A    between atoms: _499  and  _502
REMARK  203  A    between atoms: _502  and  _503
REMARK  204  A    between atoms: _503  and  _504
REMARK  205  A    between atoms: _504  and  _505
REMARK  206  A    between atoms: _514  and  _516
REMARK  207  A    between atoms: _516  and  _517
REMARK  208  A    between atoms: _516  and  _519
REMARK  209  A    between atoms: _519  and  _520
REMARK                            x       y       z     vdW  Elec       q    Type
REMARK                         _______ _______ _______ _____ _____    ______ ____
ROOT
ATOM      1  C   GLY A   5     -14.195  19.272  31.058  0.00  0.00    +0.243 C 
ATOM      2  N   ALA A   6     -13.364  19.962  31.835  0.00  0.00    -0.297 N 
ATOM      3  H   ALA A   6     -13.205  20.972  31.646  0.00  0.00    +0.150 HD
ATOM      4  O   GLY A   5     -14.450  18.104  31.276  0.00  0.00    -0.273 OA
ENDROOT
BRANCH   2   5
ATOM      5  CA  ALA A   6     -12.676  19.324  32.943  0.00  0.00    +0.149 C 
ATOM      6  CB  ALA A   6     -11.297  19.954  33.089  0.00  0.00    +0.031 C 
BRANCH   5   7
ATOM      7  C   ALA A   6     -13.447  19.643  34.180  0.00  0.00    +0.241 C 
ATOM      8  N   ASP A   7     -13.794  18.626  34.947  0.00  0.00    -0.297 N 
ATOM      9  H   ASP A   7     -13.612  17.640  34.670  0.00  0.00    +0.150 HD
ATOM     10  O   ALA A   6     -13.725  20.791  34.462  0.00  0.00    -0.273 OA
BRANCH   8  11
ATOM     11  CA  ASP A   7     -14.451  18.967  36.212  0.00  0.00    +0.160 C 
BRANCH  11  12
ATOM     12  C   ASP A   7     -13.542  19.629  37.215  0.00  0.00    +0.241 C 
ATOM     13  O   ASP A   7     -13.940  20.509  37.953  0.00  0.00    -0.273 OA
ATOM     14  N   ASP A   8     -12.302  19.174  37.216  0.00  0.00    -0.297 N 
ATOM     15  H   ASP A   8     -12.015  18.509  36.470  0.00  0.00    +0.150 HD
BRANCH  14  16
ATOM     16  CA  ASP A   8     -11.315  19.567  38.223  0.00  0.00    +0.160 C 
BRANCH  16  17
ATOM     17  C   ASP A   8     -10.135  20.192  37.527  0.00  0.00    +0.241 C 
ATOM     18  N   THR A   9      -9.242  20.807  38.283  0.00  0.00    -0.295 N 
ATOM     19  H   THR A   9      -9.437  20.887  39.301  0.00  0.00    +0.150 HD
ATOM     20  O   ASP A   8     -10.038  20.074  36.322  0.00  0.00    -0.273 OA
BRANCH  18  21
ATOM     21  CA  THR A   9      -7.994  21.383  37.774  0.00  0.00    +0.176 C 
BRANCH  21  22
ATOM     22  C   THR A   9      -6.848  20.399  37.911  0.00  0.00    +0.243 C 
ATOM     23  O   THR A   9      -6.668  19.785  38.951  0.00  0.00    -0.273 OA
ATOM     24  N   VAL A  10      -6.071  20.267  36.853  0.00  0.00    -0.298 N 
ATOM     25  H   VAL A  10      -6.314  20.775  35.979  0.00  0.00    +0.150 HD
BRANCH  24  26
ATOM     26  CA  VAL A  10      -4.877  19.425  36.879  0.00  0.00    +0.137 C 
BRANCH  26  27
ATOM     27  CB  VAL A  10      -5.118  17.987  36.333  0.00  0.00    +0.026 C 
ATOM     28  CG2 VAL A  10      -3.835  17.250  35.952  0.00  0.00    +0.002 C 
ATOM     29  CG1 VAL A  10      -6.130  17.894  35.212  0.00  0.00    +0.002 C 
ENDBRANCH  26  27
BRANCH  26  30
ATOM     30  C   VAL A  10      -3.715  20.104  36.192  0.00  0.00    +0.227 C 
ATOM     31  O   VAL A  10      -3.831  20.668  35.118  0.00  0.00    -0.286 OA
ENDBRANCH  26  30
ENDBRANCH  24  26
ENDBRANCH  21  22
BRANCH  21  32
ATOM     32  CB  THR A   9      -7.760  22.651  38.620  0.00  0.00    +0.137 C 
ATOM     33  CG2 THR A   9      -6.458  23.388  38.333  0.00  0.00    +0.034 C 
BRANCH  32  34
ATOM     34  OG1 THR A   9      -8.840  23.548  38.376  0.00  0.00    -0.382 OA
ATOM     35  HG1 THR A   9      -9.692  23.115  38.635  0.00  0.00    +0.210 HD
ENDBRANCH  32  34
ENDBRANCH  21  32
ENDBRANCH  18  21
ENDBRANCH  16  17
BRANCH  16  36
ATOM     36  CB  ASP A   8     -10.825  18.304  38.949  0.00  0.00    +0.143 C 
BRANCH  36  37
ATOM     37  CG  ASP A   8     -11.813  17.763  39.978  0.00  0.00    +0.367 C 
ATOM     38  OD2 ASP A   8     -12.516  18.548  40.623  0.00  0.00    -0.246 OA
ATOM     39  OD1 ASP A   8     -11.866  16.542  40.148  0.00  0.00    -0.246 OA
ENDBRANCH  36  37
ENDBRANCH  16  36
ENDBRANCH  14  16
ENDBRANCH  11  12
BRANCH  11  40
ATOM     40  CB  ASP A   7     -15.054  17.723  36.867  0.00  0.00    +0.143 C 
BRANCH  40  41
ATOM     41  CG  ASP A   7     -15.987  16.994  35.928  0.00  0.00    +0.367 C 
ATOM     42  OD2 ASP A   7     -16.056  15.770  36.035  0.00  0.00    -0.246 OA
ATOM     43  OD1 ASP A   7     -16.639  17.627  35.094  0.00  0.00    -0.246 OA
ENDBRANCH  40  41
ENDBRANCH  11  40
ENDBRANCH   8  11
ENDBRANCH   5   7
ENDBRANCH   2   5
BRANCH   1  44
ATOM     44  CA  GLY A   5     -14.743  20.011  29.834  0.00  0.00    +0.176 C 
BRANCH  44  47
ATOM     45  C   THR A   4     -15.252  22.253  30.457  0.00  0.00    +0.243 C 
ATOM     46  O   THR A   4     -16.224  21.826  31.054  0.00  0.00    -0.273 OA
ATOM     47  N   GLY A   5     -14.433  21.449  29.776  0.00  0.00    -0.295 N 
ATOM     48  H   GLY A   5     -13.624  21.817  29.236  0.00  0.00    +0.150 HD
BRANCH  45  49
ATOM     49  CA  THR A   4     -14.902  23.737  30.441  0.00  0.00    +0.176 C 
BRANCH  49  52
ATOM     50  C   ASP A   3     -12.527  23.678  30.658  0.00  0.00    +0.241 C 
ATOM     51  O   ASP A   3     -12.644  22.982  31.649  0.00  0.00    -0.273 OA
ATOM     52  N   THR A   4     -13.572  24.083  29.948  0.00  0.00    -0.295 N 
ATOM     53  H   THR A   4     -13.448  24.628  29.071  0.00  0.00    +0.150 HD
BRANCH  50  54
ATOM     54  CA  ASP A   3     -11.178  24.044  30.098  0.00  0.00    +0.160 C 
BRANCH  54  56
ATOM     55  C   LEU A   2     -10.285  26.250  29.851  0.00  0.00    +0.241 C 
ATOM     56  N   ASP A   3     -10.650  25.268  30.670  0.00  0.00    -0.297 N 
ATOM     57  H   ASP A   3     -10.559  25.375  31.700  0.00  0.00    +0.150 HD
ATOM     58  O   LEU A   2     -10.533  26.274  28.651  0.00  0.00    -0.273 OA
BRANCH  55  59
ATOM     59  CA  LEU A   2      -9.482  27.360  30.479  0.00  0.00    +0.149 C 
BRANCH  59  62
ATOM     60  C   LEU A   1      -7.250  26.557  30.321  0.00  0.00    +0.238 C 
ATOM     61  O   LEU A   1      -7.449  25.837  31.299  0.00  0.00    -0.274 OA
ATOM     62  N   LEU A   2      -8.152  27.411  29.866  0.00  0.00    -0.297 N 
ATOM     63  H   LEU A   2      -7.928  28.087  29.108  0.00  0.00    +0.150 HD
BRANCH  60  64
ATOM     64  CA  LEU A   1      -5.983  26.449  29.498  0.00  0.00    +0.145 C 
BRANCH  64  65
ATOM     65  N   LEU A   1      -4.819  26.389  30.375  0.00  0.00    -0.238 NA
ATOM     66  H   LEU A   1      -4.468  25.461  30.686  0.00  0.00    +0.142 HD
ENDBRANCH  64  65
BRANCH  64  67
ATOM     67  CB  LEU A   1      -6.207  25.089  28.836  0.00  0.00    +0.026 C 
BRANCH  67  68
ATOM     68  CG  LEU A   1      -5.751  24.769  27.422  0.00  0.00    +0.002 C 
ATOM     69  CD2 LEU A   1      -6.207  23.344  27.114  0.00  0.00    +0.000 C 
ATOM     70  CD1 LEU A   1      -6.360  25.694  26.392  0.00  0.00    +0.000 C 
ENDBRANCH  67  68
ENDBRANCH  64  67
ENDBRANCH  60  64
ENDBRANCH  59  62
BRANCH  59  71
ATOM     71  CB  LEU A   2     -10.211  28.690  30.268  0.00  0.00    +0.029 C 
BRANCH  71  72
ATOM     72  CG  LEU A   2      -9.440  29.853  30.874  0.00  0.00    +0.002 C 
ATOM     73  CD2 LEU A   2      -9.251  29.697  32.380  0.00  0.00    +0.000 C 
ATOM     74  CD1 LEU A   2     -10.097  31.169  30.486  0.00  0.00    +0.000 C 
ENDBRANCH  71  72
ENDBRANCH  59  71
ENDBRANCH  55  59
ENDBRANCH  54  56
BRANCH  54  75
ATOM     75  CB  ASP A   3     -10.169  22.942  30.430  0.00  0.00    +0.143 C 
BRANCH  75  76
ATOM     76  CG  ASP A   3     -10.446  21.633  29.720  0.00  0.00    +0.367 C 
ATOM     77  OD2 ASP A   3      -9.542  20.831  29.685  0.00  0.00    -0.246 OA
ATOM     78  OD1 ASP A   3     -11.531  21.400  29.206  0.00  0.00    -0.246 OA
ENDBRANCH  75  76
ENDBRANCH  54  75
ENDBRANCH  50  54
ENDBRANCH  49  52
BRANCH  49  79
ATOM     79  CB  THR A   4     -15.955  24.517  29.656  0.00  0.00    +0.137 C 
ATOM     80  CG2 THR A   4     -15.787  26.012  29.862  0.00  0.00    +0.034 C 
BRANCH  79  81
ATOM     81  OG1 THR A   4     -15.847  24.227  28.259  0.00  0.00    -0.382 OA
ATOM     82  HG1 THR A   4     -15.986  23.258  28.113  0.00  0.00    +0.210 HD
ENDBRANCH  79  81
ENDBRANCH  49  79
ENDBRANCH  45  49
ENDBRANCH  44  47
ENDBRANCH   1  44
TORSDOF 35
REMARK  Name = ../refined-set-2016/1mes/1mes_pocket.pdb
REMARK  209 active torsions:
REMARK  status: ('A' for Active; 'I' for Inactive)
REMARK    1  A    between atoms: _1  and  _3
REMARK    2  A    between atoms: _3  and  _4
REMARK    3  A    between atoms: _3  and  _6
REMARK    4  A    between atoms: _6  and  _7
REMARK    5  A    between atoms: _7  and  _8
REMARK    6  A    between atoms: _8  and  _9
REMARK    7  A    between atoms: _18  and  _20
REMARK    8  A    between atoms: _20  and  _21
REMARK    9  A    between atoms: _20  and  _23
REMARK   10  A    between atoms: _23  and  _24
REMARK   11  A    between atoms: _27  and  _29
REMARK   12  A    between atoms: _29  and  _30
REMARK   13  A    between atoms: _29  and  _32
REMARK   14  A    between atoms: _32  and  _33
REMARK   15  A    between atoms: _36  and  _38
REMARK   16  A    between atoms: _38  and  _39
REMARK   17  A    between atoms: _38  and  _41
REMARK   18  A    between atoms: _41  and  _42
REMARK   19  A    between atoms: _45  and  _47
REMARK   20  A    between atoms: _47  and  _48
REMARK   21  A    between atoms: _47  and  _50
REMARK   22  A    between atoms: _50  and  _51
REMARK   23  A    between atoms: _54  and  _56
REMARK   24  A    between atoms: _56  and  _57
REMARK   25  A    between atoms: _59  and  _61
REMARK   26  A    between atoms: _61  and  _62
REMARK   27  A    between atoms: _65  and  _67
REMARK   28  A    between atoms: _67  and  _68
REMARK   29  A    between atoms: _67  and  _70
REMARK   30  A    between atoms: _70  and  _71
REMARK   31  A    between atoms: _74  and  _76
REMARK   32  A    between atoms: _76  and  _77
REMARK   33  A    between atoms: _76  and  _79
REMARK   34  A    between atoms: _79  and  _80
REMARK   35  A    between atoms: _83  and  _85
REMARK   36  A    between atoms: _85  and  _86
REMARK   37  A    between atoms: _85  and  _88
REMARK   38  A    between atoms: _88  and  _89
REMARK   39  A    between atoms: _92  and  _94
REMARK   40  A    between atoms: _94  and  _95
REMARK   41  A    between atoms: _94  and  _97
REMARK   42  A    between atoms: _100  and  _102
REMARK   43  A    between atoms: _102  and  _103
REMARK   44  A    between atoms: _102  and  _105
REMARK   45  A    between atoms: _105  and  _106
REMARK   46  A    between atoms: _106  and  _107
REMARK   47  A    between atoms: _107  and  _108
REMARK   48  A    between atoms: _108  and  _109
REMARK   49  A    between atoms: _113  and  _115
REMARK   50  A    between atoms: _115  and  _116
REMARK   51  A    between atoms: _115  and  _118
REMARK   52  A    between atoms: _118  and  _119
REMARK   53  A    between atoms: _122  and  _124
REMARK   54  A    between atoms: _124  and  _125
REMARK   55  A    between atoms: _127  and  _129
REMARK   56  A    between atoms: _129  and  _130
REMARK   57  A    between atoms: _132  and  _134
REMARK   58  A    between atoms: _134  and  _135
REMARK   59  A    between atoms: _134  and  _137
REMARK   60  A    between atoms: _137  and  _138
REMARK   61  A    between atoms: _141  and  _143
REMARK   62  A    between atoms: _143  and  _144
REMARK   63  A    between atoms: _146  and  _148
REMARK   64  A    between atoms: _148  and  _149
REMARK   65  A    between atoms: _151  and  _153
REMARK   66  A    between atoms: _153  and  _154
REMARK   67  A    between atoms: _153  and  _156
REMARK   68  A    between atoms: _156  and  _157
REMARK   69  A    between atoms: _160  and  _162
REMARK   70  A    between atoms: _162  and  _163
REMARK   71  A    between atoms: _162  and  _165
REMARK   72  A    between atoms: _168  and  _170
REMARK   73  A    between atoms: _170  and  _171
REMARK   74  A    between atoms: _170  and  _173
REMARK   75  A    between atoms: _173  and  _174
REMARK   76  A    between atoms: _178  and  _179
REMARK   77  A    between atoms: _184  and  _186
REMARK   78  A    between atoms: _186  and  _187
REMARK   79  A    between atoms: _186  and  _189
REMARK   80  A    between atoms: _189  and  _190
REMARK   81  A    between atoms: _194  and  _195
REMARK   82  A    between atoms: _200  and  _202
REMARK   83  A    between atoms: _202  and  _203
REMARK   84  A    between atoms: _202  and  _205
REMARK   85  A    between atoms: _208  and  _210
REMARK   86  A    between atoms: _210  and  _211
REMARK   87  A    between atoms: _210  and  _213
REMARK   88  A    between atoms: _213  and  _214
REMARK   89  A    between atoms: _219  and  _221
REMARK   90  A    between atoms: _221  and  _222
REMARK   91  A    between atoms: _221  and  _224
REMARK   92  A    between atoms: _227  and  _229
REMARK   93  A    between atoms: _229  and  _230
REMARK   94  A    between atoms: _229  and  _232
REMARK   95  A    between atoms: _232  and  _233
REMARK   96  A    between atoms: _236  and  _238
REMARK   97  A    between atoms: _238  and  _239
REMARK   98  A    between atoms: _241  and  _243
REMARK   99  A    between atoms: _243  and  _244
REMARK  100  A    between atoms: _243  and  _246
REMARK  101  A    between atoms: _246  and  _247
REMARK  102  A    between atoms: _247  and  _248
REMARK  103  A    between atoms: _248  and  _249
REMARK  104  A    between atoms: _258  and  _260
REMARK  105  A    between atoms: _260  and  _261
REMARK  106  A    between atoms: _260  and  _263
REMARK  107  A    between atoms: _263  and  _264
REMARK  108  A    between atoms: _269  and  _271
REMARK  109  A    between atoms: _271  and  _272
REMARK  110  A    between atoms: _271  and  _274
REMARK  111  A    between atoms: _274  and  _275
REMARK  112  A    between atoms: _275  and  _276
REMARK  113  A    between atoms: _276  and  _277
REMARK  114  A    between atoms: _286  and  _288
REMARK  115  A    between atoms: _288  and  _289
REMARK  116  A    between atoms: _288  and  _291
REMARK  117  A    between atoms: _291  and  _292
REMARK  118  A    between atoms: _295  and  _297
REMARK  119  A    between atoms: _297  and  _298
REMARK  120  A    between atoms: _297  and  _300
REMARK  121  A    between atoms: _300  and  _301
REMARK  122  A    between atoms: _304  and  _306
REMARK  123  A    between atoms: _306  and  _307
REMARK  124  A    between atoms: _306  and  _309
REMARK  125  A    between atoms: _309  and  _310
REMARK  126  A    between atoms: _313  and  _315
REMARK  127  A    between atoms: _315  and  _316
REMARK  128  A    between atoms: _315  and  _318
REMARK  129  A    between atoms: _318  and  _319
REMARK  130  A    between atoms: _322  and  _324
REMARK  131  A    between atoms: _324  and  _325
REMARK  132  A    between atoms: _327  and  _329
REMARK  133  A    between atoms: _329  and  _330
REMARK  134  A    between atoms: _333  and  _335
REMARK  135  A    between atoms: _335  and  _336
REMARK  136  A    between atoms: _335  and  _338
REMARK  137  A    between atoms: _338  and  _339
REMARK  138  A    between atoms: _342  and  _344
REMARK  139  A    between atoms: _344  and  _345
REMARK  140  A    between atoms: _344  and  _347
REMARK  141  A    between atoms: _347  and  _348
REMARK  142  A    between atoms: _351  and  _353
REMARK  143  A    between atoms: _353  and  _354
REMARK  144  A    between atoms: _353  and  _356
REMARK  145  A    between atoms: _356  and  _357
REMARK  146  A    between atoms: _360  and  _362
REMARK  147  A    between atoms: _362  and  _363
REMARK  148  A    between atoms: _362  and  _365
REMARK  149  A    between atoms: _368  and  _370
REMARK  150  A    between atoms: _370  and  _371
REMARK  151  A    between atoms: _370  and  _373
REMARK  152  A    between atoms: _373  and  _374
REMARK  153  A    between atoms: _374  and  _375
REMARK  154  A    between atoms: _377  and  _379
REMARK  155  A    between atoms: _379  and  _380
REMARK  156  A    between atoms: _379  and  _382
REMARK  157  A    between atoms: _382  and  _383
REMARK  158  A    between atoms: _386  and  _388
REMARK  159  A    between atoms: _388  and  _389
REMARK  160  A    between atoms: _391  and  _393
REMARK  161  A    between atoms: _393  and  _394
REMARK  162  A    between atoms: _396  and  _398
REMARK  163  A    between atoms: _398  and  _399
REMARK  164  A    between atoms: _398  and  _401
REMARK  165  A    between atoms: _401  and  _402
REMARK  166  A    between atoms: _405  and  _407
REMARK  167  A    between atoms: _407  and  _408
REMARK  168  A    between atoms: _410  and  _412
REMARK  169  A    between atoms: _412  and  _413
REMARK  170  A    between atoms: _415  and  _417
REMARK  171  A    between atoms: _417  and  _418
REMARK  172  A    between atoms: _417  and  _420
REMARK  173  A    between atoms: _420  and  _421
REMARK  174  A    between atoms: _424  and  _426
REMARK  175  A    between atoms: _426  and  _427
REMARK  176  A    between atoms: _426  and  _429
REMARK  177  A    between atoms: _429  and  _430
REMARK  178  A    between atoms: _434  and  _435
REMARK  179  A    between atoms: _440  and  _442
REMARK  180  A    between atoms: _442  and  _443
REMARK  181  A    between atoms: _442  and  _445
REMARK  182  A    between atoms: _445  and  _446
REMARK  183  A    between atoms: _450  and  _451
REMARK  184  A    between atoms: _456  and  _458
REMARK  185  A    between atoms: _458  and  _459
REMARK  186  A    between atoms: _458  and  _461
REMARK  187  A    between atoms: _464  and  _466
REMARK  188  A    between atoms: _466  and  _467
REMARK  189  A    between atoms: _466  and  _469
REMARK  190  A    between atoms: _469  and  _470
REMARK  191  A    between atoms: _475  and  _477
REMARK  192  A    between atoms: _477  and  _478
REMARK  193  A    between atoms: _477  and  _480
REMARK  194  A    between atoms: _483  and  _485
REMARK  195  A    between atoms: _485  and  _486
REMARK  196  A    between atoms: _485  and  _488
REMARK  197  A    between atoms: _488  and  _489
REMARK  198  A    between atoms: _492  and  _494
REMARK  199  A    between atoms: _494  and  _495
REMARK  200  A    between atoms: _497  and  _499
REMARK  201  A    between atoms: _499  and  _500
REMARK  202  A    between atoms: _499  and  _502
REMARK  203  A    between atoms: _502  and  _503
REMARK  204  A    between atoms: _503  and  _504
REMARK  205  A    between atoms: _504  and  _505
REMARK  206  A    between atoms: _514  and  _516
REMARK  207  A    between atoms: _516  and  _517
REMARK  208  A    between atoms: _516  and  _519
REMARK  209  A    between atoms: _519  and  _520
REMARK                            x       y       z     vdW  Elec       q    Type
REMARK                         _______ _______ _______ _____ _____    ______ ____
ROOT
ATOM      1  CG  LYS A   1      -8.122  11.288  42.747  0.00  0.00    -0.000 C 
ENDROOT
BRANCH   1   2
ATOM      2  CB  LYS A   1      -6.607  11.323  42.938  0.00  0.00    +0.025 C 
BRANCH   2   3
ATOM      3  CA  LYS A   1      -5.936   9.937  42.955  0.00  0.00    +0.133 C 
BRANCH   3   4
ATOM      4  N   LYS A   1      -4.640  10.052  43.615  0.00  0.00    -0.239 NA
ATOM      5  H   LYS A   1      -3.791  10.242  43.046  0.00  0.00    +0.142 HD
ENDBRANCH   3   4
BRANCH   3   6
ATOM      6  C   LYS A   1      -5.643   9.440  41.551  0.00  0.00    +0.224 C 
ATOM      7  O   LYS A   1      -4.503   9.467  41.112  0.00  0.00    -0.287 OA
ENDBRANCH   3   6
ENDBRANCH   2   3
ENDBRANCH   1   2
BRANCH   1   8
ATOM      8  CD  LYS A   1      -8.796  12.649  42.528  0.00  0.00    -0.024 C 
BRANCH   8   9
ATOM      9  CE  LYS A   1     -10.305  12.509  42.790  0.00  0.00    -0.086 C 
BRANCH   9  10
ATOM     10  NZ  LYS A   1     -11.098  13.660  42.323  0.00  0.00    +0.380 N 
ATOM     11  HZ1 LYS A   1     -10.778  14.521  42.811  0.00  0.00    -0.089 HD
ATOM     12  HZ2 LYS A   1     -12.103  13.495  42.533  0.00  0.00    -0.089 HD
ATOM     13  HZ3 LYS A   1     -10.971  13.774  41.297  0.00  0.00    -0.089 HD
ENDBRANCH   9  10
ENDBRANCH   8   9
ENDBRANCH   1   8
TORSDOF 7
REMARK  Name = ../refined-set-2016/1mes/1mes_pocket.pdb
REMARK  209 active torsions:
REMARK  status: ('A' for Active; 'I' for Inactive)
REMARK    1  A    between atoms: _1  and  _3
REMARK    2  A    between atoms: _3  and  _4
REMARK    3  A    between atoms: _3  and  _6
REMARK    4  A    between atoms: _6  and  _7
REMARK    5  A    between atoms: _7  and  _8
REMARK    6  A    between atoms: _8  and  _9
REMARK    7  A    between atoms: _18  and  _20
REMARK    8  A    between atoms: _20  and  _21
REMARK    9  A    between atoms: _20  and  _23
REMARK   10  A    between atoms: _23  and  _24
REMARK   11  A    between atoms: _27  and  _29
REMARK   12  A    between atoms: _29  and  _30
REMARK   13  A    between atoms: _29  and  _32
REMARK   14  A    between atoms: _32  and  _33
REMARK   15  A    between atoms: _36  and  _38
REMARK   16  A    between atoms: _38  and  _39
REMARK   17  A    between atoms: _38  and  _41
REMARK   18  A    between atoms: _41  and  _42
REMARK   19  A    between atoms: _45  and  _47
REMARK   20  A    between atoms: _47  and  _48
REMARK   21  A    between atoms: _47  and  _50
REMARK   22  A    between atoms: _50  and  _51
REMARK   23  A    between atoms: _54  and  _56
REMARK   24  A    between atoms: _56  and  _57
REMARK   25  A    between atoms: _59  and  _61
REMARK   26  A    between atoms: _61  and  _62
REMARK   27  A    between atoms: _65  and  _67
REMARK   28  A    between atoms: _67  and  _68
REMARK   29  A    between atoms: _67  and  _70
REMARK   30  A    between atoms: _70  and  _71
REMARK   31  A    between atoms: _74  and  _76
REMARK   32  A    between atoms: _76  and  _77
REMARK   33  A    between atoms: _76  and  _79
REMARK   34  A    between atoms: _79  and  _80
REMARK   35  A    between atoms: _83  and  _85
REMARK   36  A    between atoms: _85  and  _86
REMARK   37  A    between atoms: _85  and  _88
REMARK   38  A    between atoms: _88  and  _89
REMARK   39  A    between atoms: _92  and  _94
REMARK   40  A    between atoms: _94  and  _95
REMARK   41  A    between atoms: _94  and  _97
REMARK   42  A    between atoms: _100  and  _102
REMARK   43  A    between atoms: _102  and  _103
REMARK   44  A    between atoms: _102  and  _105
REMARK   45  A    between atoms: _105  and  _106
REMARK   46  A    between atoms: _106  and  _107
REMARK   47  A    between atoms: _107  and  _108
REMARK   48  A    between atoms: _108  and  _109
REMARK   49  A    between atoms: _113  and  _115
REMARK   50  A    between atoms: _115  and  _116
REMARK   51  A    between atoms: _115  and  _118
REMARK   52  A    between atoms: _118  and  _119
REMARK   53  A    between atoms: _122  and  _124
REMARK   54  A    between atoms: _124  and  _125
REMARK   55  A    between atoms: _127  and  _129
REMARK   56  A    between atoms: _129  and  _130
REMARK   57  A    between atoms: _132  and  _134
REMARK   58  A    between atoms: _134  and  _135
REMARK   59  A    between atoms: _134  and  _137
REMARK   60  A    between atoms: _137  and  _138
REMARK   61  A    between atoms: _141  and  _143
REMARK   62  A    between atoms: _143  and  _144
REMARK   63  A    between atoms: _146  and  _148
REMARK   64  A    between atoms: _148  and  _149
REMARK   65  A    between atoms: _151  and  _153
REMARK   66  A    between atoms: _153  and  _154
REMARK   67  A    between atoms: _153  and  _156
REMARK   68  A    between atoms: _156  and  _157
REMARK   69  A    between atoms: _160  and  _162
REMARK   70  A    between atoms: _162  and  _163
REMARK   71  A    between atoms: _162  and  _165
REMARK   72  A    between atoms: _168  and  _170
REMARK   73  A    between atoms: _170  and  _171
REMARK   74  A    between atoms: _170  and  _173
REMARK   75  A    between atoms: _173  and  _174
REMARK   76  A    between atoms: _178  and  _179
REMARK   77  A    between atoms: _184  and  _186
REMARK   78  A    between atoms: _186  and  _187
REMARK   79  A    between atoms: _186  and  _189
REMARK   80  A    between atoms: _189  and  _190
REMARK   81  A    between atoms: _194  and  _195
REMARK   82  A    between atoms: _200  and  _202
REMARK   83  A    between atoms: _202  and  _203
REMARK   84  A    between atoms: _202  and  _205
REMARK   85  A    between atoms: _208  and  _210
REMARK   86  A    between atoms: _210  and  _211
REMARK   87  A    between atoms: _210  and  _213
REMARK   88  A    between atoms: _213  and  _214
REMARK   89  A    between atoms: _219  and  _221
REMARK   90  A    between atoms: _221  and  _222
REMARK   91  A    between atoms: _221  and  _224
REMARK   92  A    between atoms: _227  and  _229
REMARK   93  A    between atoms: _229  and  _230
REMARK   94  A    between atoms: _229  and  _232
REMARK   95  A    between atoms: _232  and  _233
REMARK   96  A    between atoms: _236  and  _238
REMARK   97  A    between atoms: _238  and  _239
REMARK   98  A    between atoms: _241  and  _243
REMARK   99  A    between atoms: _243  and  _244
REMARK  100  A    between atoms: _243  and  _246
REMARK  101  A    between atoms: _246  and  _247
REMARK  102  A    between atoms: _247  and  _248
REMARK  103  A    between atoms: _248  and  _249
REMARK  104  A    between atoms: _258  and  _260
REMARK  105  A    between atoms: _260  and  _261
REMARK  106  A    between atoms: _260  and  _263
REMARK  107  A    between atoms: _263  and  _264
REMARK  108  A    between atoms: _269  and  _271
REMARK  109  A    between atoms: _271  and  _272
REMARK  110  A    between atoms: _271  and  _274
REMARK  111  A    between atoms: _274  and  _275
REMARK  112  A    between atoms: _275  and  _276
REMARK  113  A    between atoms: _276  and  _277
REMARK  114  A    between atoms: _286  and  _288
REMARK  115  A    between atoms: _288  and  _289
REMARK  116  A    between atoms: _288  and  _291
REMARK  117  A    between atoms: _291  and  _292
REMARK  118  A    between atoms: _295  and  _297
REMARK  119  A    between atoms: _297  and  _298
REMARK  120  A    between atoms: _297  and  _300
REMARK  121  A    between atoms: _300  and  _301
REMARK  122  A    between atoms: _304  and  _306
REMARK  123  A    between atoms: _306  and  _307
REMARK  124  A    between atoms: _306  and  _309
REMARK  125  A    between atoms: _309  and  _310
REMARK  126  A    between atoms: _313  and  _315
REMARK  127  A    between atoms: _315  and  _316
REMARK  128  A    between atoms: _315  and  _318
REMARK  129  A    between atoms: _318  and  _319
REMARK  130  A    between atoms: _322  and  _324
REMARK  131  A    between atoms: _324  and  _325
REMARK  132  A    between atoms: _327  and  _329
REMARK  133  A    between atoms: _329  and  _330
REMARK  134  A    between atoms: _333  and  _335
REMARK  135  A    between atoms: _335  and  _336
REMARK  136  A    between atoms: _335  and  _338
REMARK  137  A    between atoms: _338  and  _339
REMARK  138  A    between atoms: _342  and  _344
REMARK  139  A    between atoms: _344  and  _345
REMARK  140  A    between atoms: _344  and  _347
REMARK  141  A    between atoms: _347  and  _348
REMARK  142  A    between atoms: _351  and  _353
REMARK  143  A    between atoms: _353  and  _354
REMARK  144  A    between atoms: _353  and  _356
REMARK  145  A    between atoms: _356  and  _357
REMARK  146  A    between atoms: _360  and  _362
REMARK  147  A    between atoms: _362  and  _363
REMARK  148  A    between atoms: _362  and  _365
REMARK  149  A    between atoms: _368  and  _370
REMARK  150  A    between atoms: _370  and  _371
REMARK  151  A    between atoms: _370  and  _373
REMARK  152  A    between atoms: _373  and  _374
REMARK  153  A    between atoms: _374  and  _375
REMARK  154  A    between atoms: _377  and  _379
REMARK  155  A    between atoms: _379  and  _380
REMARK  156  A    between atoms: _379  and  _382
REMARK  157  A    between atoms: _382  and  _383
REMARK  158  A    between atoms: _386  and  _388
REMARK  159  A    between atoms: _388  and  _389
REMARK  160  A    between atoms: _391  and  _393
REMARK  161  A    between atoms: _393  and  _394
REMARK  162  A    between atoms: _396  and  _398
REMARK  163  A    between atoms: _398  and  _399
REMARK  164  A    between atoms: _398  and  _401
REMARK  165  A    between atoms: _401  and  _402
REMARK  166  A    between atoms: _405  and  _407
REMARK  167  A    between atoms: _407  and  _408
REMARK  168  A    between atoms: _410  and  _412
REMARK  169  A    between atoms: _412  and  _413
REMARK  170  A    between atoms: _415  and  _417
REMARK  171  A    between atoms: _417  and  _418
REMARK  172  A    between atoms: _417  and  _420
REMARK  173  A    between atoms: _420  and  _421
REMARK  174  A    between atoms: _424  and  _426
REMARK  175  A    between atoms: _426  and  _427
REMARK  176  A    between atoms: _426  and  _429
REMARK  177  A    between atoms: _429  and  _430
REMARK  178  A    between atoms: _434  and  _435
REMARK  179  A    between atoms: _440  and  _442
REMARK  180  A    between atoms: _442  and  _443
REMARK  181  A    between atoms: _442  and  _445
REMARK  182  A    between atoms: _445  and  _446
REMARK  183  A    between atoms: _450  and  _451
REMARK  184  A    between atoms: _456  and  _458
REMARK  185  A    between atoms: _458  and  _459
REMARK  186  A    between atoms: _458  and  _461
REMARK  187  A    between atoms: _464  and  _466
REMARK  188  A    between atoms: _466  and  _467
REMARK  189  A    between atoms: _466  and  _469
REMARK  190  A    between atoms: _469  and  _470
REMARK  191  A    between atoms: _475  and  _477
REMARK  192  A    between atoms: _477  and  _478
REMARK  193  A    between atoms: _477  and  _480
REMARK  194  A    between atoms: _483  and  _485
REMARK  195  A    between atoms: _485  and  _486
REMARK  196  A    between atoms: _485  and  _488
REMARK  197  A    between atoms: _488  and  _489
REMARK  198  A    between atoms: _492  and  _494
REMARK  199  A    between atoms: _494  and  _495
REMARK  200  A    between atoms: _497  and  _499
REMARK  201  A    between atoms: _499  and  _500
REMARK  202  A    between atoms: _499  and  _502
REMARK  203  A    between atoms: _502  and  _503
REMARK  204  A    between atoms: _503  and  _504
REMARK  205  A    between atoms: _504  and  _505
REMARK  206  A    between atoms: _514  and  _516
REMARK  207  A    between atoms: _516  and  _517
REMARK  208  A    between atoms: _516  and  _519
REMARK  209  A    between atoms: _519  and  _520
REMARK                            x       y       z     vdW  Elec       q    Type
REMARK                         _______ _______ _______ _____ _____    ______ ____
ROOT
ATOM      1  C   GLY A   3      -9.237  10.490  28.889  0.00  0.00    +0.243 C 
ATOM      2  O   GLY A   3      -9.470   9.289  28.856  0.00  0.00    -0.273 OA
ATOM      3  N   ILE A   4      -9.172  11.236  27.794  0.00  0.00    -0.297 N 
ATOM      4  H   ILE A   4      -9.163  12.274  27.861  0.00  0.00    +0.150 HD
ENDROOT
BRANCH   3   5
ATOM      5  CA  ILE A   4      -9.114  10.577  26.495  0.00  0.00    +0.149 C 
BRANCH   5   6
ATOM      6  C   ILE A   4      -7.795   9.884  26.452  0.00  0.00    +0.241 C 
ATOM      7  O   ILE A   4      -6.783  10.484  26.735  0.00  0.00    -0.273 OA
ATOM      8  N   GLY A   5      -7.806   8.631  26.101  0.00  0.00    -0.295 N 
ATOM      9  H   GLY A   5      -8.667   8.109  25.842  0.00  0.00    +0.150 HD
BRANCH   8  10
ATOM     10  CA  GLY A   5      -6.472   8.044  26.113  0.00  0.00    +0.176 C 
BRANCH  10  11
ATOM     11  C   GLY A   5      -6.192   7.170  27.315  0.00  0.00    +0.243 C 
ATOM     12  N   GLY A   6      -6.894   7.398  28.433  0.00  0.00    -0.296 N 
ATOM     13  H   GLY A   6      -7.611   8.149  28.485  0.00  0.00    +0.150 HD
ATOM     14  O   GLY A   5      -5.369   6.275  27.227  0.00  0.00    -0.273 OA
BRANCH  12  15
ATOM     15  CA  GLY A   6      -6.598   6.534  29.577  0.00  0.00    +0.163 C 
BRANCH  15  16
ATOM     16  C   GLY A   6      -6.565   7.253  30.904  0.00  0.00    +0.229 C 
ATOM     17  O   GLY A   6      -7.219   8.254  31.120  0.00  0.00    -0.286 OA
ENDBRANCH  15  16
ENDBRANCH  12  15
ENDBRANCH  10  11
ENDBRANCH   8  10
ENDBRANCH   5   6
BRANCH   5  18
ATOM     18  CB  ILE A   4      -9.187  11.657  25.406  0.00  0.00    +0.027 C 
ATOM     19  CG2 ILE A   4      -8.238  11.501  24.198  0.00  0.00    +0.002 C 
BRANCH  18  20
ATOM     20  CG1 ILE A   4     -10.622  11.713  24.904  0.00  0.00    +0.002 C 
ATOM     21  CD1 ILE A   4     -10.927  12.895  23.983  0.00  0.00    +0.000 C 
ENDBRANCH  18  20
ENDBRANCH   5  18
ENDBRANCH   3   5
BRANCH   1  22
ATOM     22  CA  GLY A   3      -8.962  11.228  30.175  0.00  0.00    +0.176 C 
BRANCH  22  25
ATOM     23  C   GLY A   2      -9.616  10.409  32.362  0.00  0.00    +0.243 C 
ATOM     24  O   GLY A   2     -10.337  11.359  32.614  0.00  0.00    -0.273 OA
ATOM     25  N   GLY A   3      -8.918  10.273  31.263  0.00  0.00    -0.295 N 
ATOM     26  H   GLY A   3      -8.303   9.440  31.167  0.00  0.00    +0.150 HD
BRANCH  23  27
ATOM     27  CA  GLY A   2      -9.435   9.306  33.362  0.00  0.00    +0.176 C 
BRANCH  27  30
ATOM     28  C   ILE A   1      -8.271   9.878  35.368  0.00  0.00    +0.238 C 
ATOM     29  O   ILE A   1      -7.219   9.437  34.931  0.00  0.00    -0.274 OA
ATOM     30  N   GLY A   2      -9.403   9.878  34.699  0.00  0.00    -0.296 N 
ATOM     31  H   GLY A   2     -10.264  10.282  35.120  0.00  0.00    +0.150 HD
BRANCH  28  32
ATOM     32  CA  ILE A   1      -8.335  10.446  36.756  0.00  0.00    +0.145 C 
BRANCH  32  33
ATOM     33  N   ILE A   1      -7.274   9.824  37.543  0.00  0.00    -0.238 NA
ATOM     34  H   ILE A   1      -6.287   9.861  37.219  0.00  0.00    +0.142 HD
ENDBRANCH  32  33
BRANCH  32  35
ATOM     35  CB  ILE A   1      -8.168  11.979  36.715  0.00  0.00    +0.025 C 
ATOM     36  CG2 ILE A   1      -8.214  12.612  38.111  0.00  0.00    +0.002 C 
BRANCH  35  37
ATOM     37  CG1 ILE A   1      -6.898  12.444  36.011  0.00  0.00    +0.002 C 
ATOM     38  CD1 ILE A   1      -6.959  13.913  35.607  0.00  0.00    +0.000 C 
ENDBRANCH  35  37
ENDBRANCH  32  35
ENDBRANCH  28  32
ENDBRANCH  27  30
ENDBRANCH  23  27
ENDBRANCH  22  25
ENDBRANCH   1  22
TORSDOF 16
REMARK  Name = ../refined-set-2016/1mes/1mes_pocket.pdb
REMARK  209 active torsions:
REMARK  status: ('A' for Active; 'I' for Inactive)
REMARK    1  A    between atoms: _1  and  _3
REMARK    2  A    between atoms: _3  and  _4
REMARK    3  A    between atoms: _3  and  _6
REMARK    4  A    between atoms: _6  and  _7
REMARK    5  A    between atoms: _7  and  _8
REMARK    6  A    between atoms: _8  and  _9
REMARK    7  A    between atoms: _18  and  _20
REMARK    8  A    between atoms: _20  and  _21
REMARK    9  A    between atoms: _20  and  _23
REMARK   10  A    between atoms: _23  and  _24
REMARK   11  A    between atoms: _27  and  _29
REMARK   12  A    between atoms: _29  and  _30
REMARK   13  A    between atoms: _29  and  _32
REMARK   14  A    between atoms: _32  and  _33
REMARK   15  A    between atoms: _36  and  _38
REMARK   16  A    between atoms: _38  and  _39
REMARK   17  A    between atoms: _38  and  _41
REMARK   18  A    between atoms: _41  and  _42
REMARK   19  A    between atoms: _45  and  _47
REMARK   20  A    between atoms: _47  and  _48
REMARK   21  A    between atoms: _47  and  _50
REMARK   22  A    between atoms: _50  and  _51
REMARK   23  A    between atoms: _54  and  _56
REMARK   24  A    between atoms: _56  and  _57
REMARK   25  A    between atoms: _59  and  _61
REMARK   26  A    between atoms: _61  and  _62
REMARK   27  A    between atoms: _65  and  _67
REMARK   28  A    between atoms: _67  and  _68
REMARK   29  A    between atoms: _67  and  _70
REMARK   30  A    between atoms: _70  and  _71
REMARK   31  A    between atoms: _74  and  _76
REMARK   32  A    between atoms: _76  and  _77
REMARK   33  A    between atoms: _76  and  _79
REMARK   34  A    between atoms: _79  and  _80
REMARK   35  A    between atoms: _83  and  _85
REMARK   36  A    between atoms: _85  and  _86
REMARK   37  A    between atoms: _85  and  _88
REMARK   38  A    between atoms: _88  and  _89
REMARK   39  A    between atoms: _92  and  _94
REMARK   40  A    between atoms: _94  and  _95
REMARK   41  A    between atoms: _94  and  _97
REMARK   42  A    between atoms: _100  and  _102
REMARK   43  A    between atoms: _102  and  _103
REMARK   44  A    between atoms: _102  and  _105
REMARK   45  A    between atoms: _105  and  _106
REMARK   46  A    between atoms: _106  and  _107
REMARK   47  A    between atoms: _107  and  _108
REMARK   48  A    between atoms: _108  and  _109
REMARK   49  A    between atoms: _113  and  _115
REMARK   50  A    between atoms: _115  and  _116
REMARK   51  A    between atoms: _115  and  _118
REMARK   52  A    between atoms: _118  and  _119
REMARK   53  A    between atoms: _122  and  _124
REMARK   54  A    between atoms: _124  and  _125
REMARK   55  A    between atoms: _127  and  _129
REMARK   56  A    between atoms: _129  and  _130
REMARK   57  A    between atoms: _132  and  _134
REMARK   58  A    between atoms: _134  and  _135
REMARK   59  A    between atoms: _134  and  _137
REMARK   60  A    between atoms: _137  and  _138
REMARK   61  A    between atoms: _141  and  _143
REMARK   62  A    between atoms: _143  and  _144
REMARK   63  A    between atoms: _146  and  _148
REMARK   64  A    between atoms: _148  and  _149
REMARK   65  A    between atoms: _151  and  _153
REMARK   66  A    between atoms: _153  and  _154
REMARK   67  A    between atoms: _153  and  _156
REMARK   68  A    between atoms: _156  and  _157
REMARK   69  A    between atoms: _160  and  _162
REMARK   70  A    between atoms: _162  and  _163
REMARK   71  A    between atoms: _162  and  _165
REMARK   72  A    between atoms: _168  and  _170
REMARK   73  A    between atoms: _170  and  _171
REMARK   74  A    between atoms: _170  and  _173
REMARK   75  A    between atoms: _173  and  _174
REMARK   76  A    between atoms: _178  and  _179
REMARK   77  A    between atoms: _184  and  _186
REMARK   78  A    between atoms: _186  and  _187
REMARK   79  A    between atoms: _186  and  _189
REMARK   80  A    between atoms: _189  and  _190
REMARK   81  A    between atoms: _194  and  _195
REMARK   82  A    between atoms: _200  and  _202
REMARK   83  A    between atoms: _202  and  _203
REMARK   84  A    between atoms: _202  and  _205
REMARK   85  A    between atoms: _208  and  _210
REMARK   86  A    between atoms: _210  and  _211
REMARK   87  A    between atoms: _210  and  _213
REMARK   88  A    between atoms: _213  and  _214
REMARK   89  A    between atoms: _219  and  _221
REMARK   90  A    between atoms: _221  and  _222
REMARK   91  A    between atoms: _221  and  _224
REMARK   92  A    between atoms: _227  and  _229
REMARK   93  A    between atoms: _229  and  _230
REMARK   94  A    between atoms: _229  and  _232
REMARK   95  A    between atoms: _232  and  _233
REMARK   96  A    between atoms: _236  and  _238
REMARK   97  A    between atoms: _238  and  _239
REMARK   98  A    between atoms: _241  and  _243
REMARK   99  A    between atoms: _243  and  _244
REMARK  100  A    between atoms: _243  and  _246
REMARK  101  A    between atoms: _246  and  _247
REMARK  102  A    between atoms: _247  and  _248
REMARK  103  A    between atoms: _248  and  _249
REMARK  104  A    between atoms: _258  and  _260
REMARK  105  A    between atoms: _260  and  _261
REMARK  106  A    between atoms: _260  and  _263
REMARK  107  A    between atoms: _263  and  _264
REMARK  108  A    between atoms: _269  and  _271
REMARK  109  A    between atoms: _271  and  _272
REMARK  110  A    between atoms: _271  and  _274
REMARK  111  A    between atoms: _274  and  _275
REMARK  112  A    between atoms: _275  and  _276
REMARK  113  A    between atoms: _276  and  _277
REMARK  114  A    between atoms: _286  and  _288
REMARK  115  A    between atoms: _288  and  _289
REMARK  116  A    between atoms: _288  and  _291
REMARK  117  A    between atoms: _291  and  _292
REMARK  118  A    between atoms: _295  and  _297
REMARK  119  A    between atoms: _297  and  _298
REMARK  120  A    between atoms: _297  and  _300
REMARK  121  A    between atoms: _300  and  _301
REMARK  122  A    between atoms: _304  and  _306
REMARK  123  A    between atoms: _306  and  _307
REMARK  124  A    between atoms: _306  and  _309
REMARK  125  A    between atoms: _309  and  _310
REMARK  126  A    between atoms: _313  and  _315
REMARK  127  A    between atoms: _315  and  _316
REMARK  128  A    between atoms: _315  and  _318
REMARK  129  A    between atoms: _318  and  _319
REMARK  130  A    between atoms: _322  and  _324
REMARK  131  A    between atoms: _324  and  _325
REMARK  132  A    between atoms: _327  and  _329
REMARK  133  A    between atoms: _329  and  _330
REMARK  134  A    between atoms: _333  and  _335
REMARK  135  A    between atoms: _335  and  _336
REMARK  136  A    between atoms: _335  and  _338
REMARK  137  A    between atoms: _338  and  _339
REMARK  138  A    between atoms: _342  and  _344
REMARK  139  A    between atoms: _344  and  _345
REMARK  140  A    between atoms: _344  and  _347
REMARK  141  A    between atoms: _347  and  _348
REMARK  142  A    between atoms: _351  and  _353
REMARK  143  A    between atoms: _353  and  _354
REMARK  144  A    between atoms: _353  and  _356
REMARK  145  A    between atoms: _356  and  _357
REMARK  146  A    between atoms: _360  and  _362
REMARK  147  A    between atoms: _362  and  _363
REMARK  148  A    between atoms: _362  and  _365
REMARK  149  A    between atoms: _368  and  _370
REMARK  150  A    between atoms: _370  and  _371
REMARK  151  A    between atoms: _370  and  _373
REMARK  152  A    between atoms: _373  and  _374
REMARK  153  A    between atoms: _374  and  _375
REMARK  154  A    between atoms: _377  and  _379
REMARK  155  A    between atoms: _379  and  _380
REMARK  156  A    between atoms: _379  and  _382
REMARK  157  A    between atoms: _382  and  _383
REMARK  158  A    between atoms: _386  and  _388
REMARK  159  A    between atoms: _388  and  _389
REMARK  160  A    between atoms: _391  and  _393
REMARK  161  A    between atoms: _393  and  _394
REMARK  162  A    between atoms: _396  and  _398
REMARK  163  A    between atoms: _398  and  _399
REMARK  164  A    between atoms: _398  and  _401
REMARK  165  A    between atoms: _401  and  _402
REMARK  166  A    between atoms: _405  and  _407
REMARK  167  A    between atoms: _407  and  _408
REMARK  168  A    between atoms: _410  and  _412
REMARK  169  A    between atoms: _412  and  _413
REMARK  170  A    between atoms: _415  and  _417
REMARK  171  A    between atoms: _417  and  _418
REMARK  172  A    between atoms: _417  and  _420
REMARK  173  A    between atoms: _420  and  _421
REMARK  174  A    between atoms: _424  and  _426
REMARK  175  A    between atoms: _426  and  _427
REMARK  176  A    between atoms: _426  and  _429
REMARK  177  A    between atoms: _429  and  _430
REMARK  178  A    between atoms: _434  and  _435
REMARK  179  A    between atoms: _440  and  _442
REMARK  180  A    between atoms: _442  and  _443
REMARK  181  A    between atoms: _442  and  _445
REMARK  182  A    between atoms: _445  and  _446
REMARK  183  A    between atoms: _450  and  _451
REMARK  184  A    between atoms: _456  and  _458
REMARK  185  A    between atoms: _458  and  _459
REMARK  186  A    between atoms: _458  and  _461
REMARK  187  A    between atoms: _464  and  _466
REMARK  188  A    between atoms: _466  and  _467
REMARK  189  A    between atoms: _466  and  _469
REMARK  190  A    between atoms: _469  and  _470
REMARK  191  A    between atoms: _475  and  _477
REMARK  192  A    between atoms: _477  and  _478
REMARK  193  A    between atoms: _477  and  _480
REMARK  194  A    between atoms: _483  and  _485
REMARK  195  A    between atoms: _485  and  _486
REMARK  196  A    between atoms: _485  and  _488
REMARK  197  A    between atoms: _488  and  _489
REMARK  198  A    between atoms: _492  and  _494
REMARK  199  A    between atoms: _494  and  _495
REMARK  200  A    between atoms: _497  and  _499
REMARK  201  A    between atoms: _499  and  _500
REMARK  202  A    between atoms: _499  and  _502
REMARK  203  A    between atoms: _502  and  _503
REMARK  204  A    between atoms: _503  and  _504
REMARK  205  A    between atoms: _504  and  _505
REMARK  206  A    between atoms: _514  and  _516
REMARK  207  A    between atoms: _516  and  _517
REMARK  208  A    between atoms: _516  and  _519
REMARK  209  A    between atoms: _519  and  _520
REMARK                            x       y       z     vdW  Elec       q    Type
REMARK                         _______ _______ _______ _____ _____    ______ ____
ROOT
ATOM      1  CA  ILE A   1      -3.294   8.944  35.149  0.00  0.00    +0.133 C 
ENDROOT
BRANCH   1   2
ATOM      2  N   ILE A   1      -4.566   8.666  34.482  0.00  0.00    -0.239 NA
ATOM      3  H   ILE A   1      -5.422   9.217  34.693  0.00  0.00    +0.142 HD
ENDBRANCH   1   2
BRANCH   1   4
ATOM      4  C   ILE A   1      -3.435   8.966  36.655  0.00  0.00    +0.224 C 
ATOM      5  O   ILE A   1      -4.493   9.226  37.208  0.00  0.00    -0.287 OA
ENDBRANCH   1   4
BRANCH   1   6
ATOM      6  CB  ILE A   1      -2.642  10.261  34.674  0.00  0.00    +0.023 C 
ATOM      7  CG2 ILE A   1      -2.166  10.151  33.227  0.00  0.00    +0.002 C 
BRANCH   6   8
ATOM      8  CG1 ILE A   1      -3.474  11.522  34.864  0.00  0.00    +0.002 C 
ATOM      9  CD1 ILE A   1      -2.633  12.778  34.614  0.00  0.00    +0.000 C 
ENDBRANCH   6   8
ENDBRANCH   1   6
TORSDOF 4
REMARK  Name = ../refined-set-2016/1mes/1mes_pocket.pdb
REMARK  209 active torsions:
REMARK  status: ('A' for Active; 'I' for Inactive)
REMARK    1  A    between atoms: _1  and  _3
REMARK    2  A    between atoms: _3  and  _4
REMARK    3  A    between atoms: _3  and  _6
REMARK    4  A    between atoms: _6  and  _7
REMARK    5  A    between atoms: _7  and  _8
REMARK    6  A    between atoms: _8  and  _9
REMARK    7  A    between atoms: _18  and  _20
REMARK    8  A    between atoms: _20  and  _21
REMARK    9  A    between atoms: _20  and  _23
REMARK   10  A    between atoms: _23  and  _24
REMARK   11  A    between atoms: _27  and  _29
REMARK   12  A    between atoms: _29  and  _30
REMARK   13  A    between atoms: _29  and  _32
REMARK   14  A    between atoms: _32  and  _33
REMARK   15  A    between atoms: _36  and  _38
REMARK   16  A    between atoms: _38  and  _39
REMARK   17  A    between atoms: _38  and  _41
REMARK   18  A    between atoms: _41  and  _42
REMARK   19  A    between atoms: _45  and  _47
REMARK   20  A    between atoms: _47  and  _48
REMARK   21  A    between atoms: _47  and  _50
REMARK   22  A    between atoms: _50  and  _51
REMARK   23  A    between atoms: _54  and  _56
REMARK   24  A    between atoms: _56  and  _57
REMARK   25  A    between atoms: _59  and  _61
REMARK   26  A    between atoms: _61  and  _62
REMARK   27  A    between atoms: _65  and  _67
REMARK   28  A    between atoms: _67  and  _68
REMARK   29  A    between atoms: _67  and  _70
REMARK   30  A    between atoms: _70  and  _71
REMARK   31  A    between atoms: _74  and  _76
REMARK   32  A    between atoms: _76  and  _77
REMARK   33  A    between atoms: _76  and  _79
REMARK   34  A    between atoms: _79  and  _80
REMARK   35  A    between atoms: _83  and  _85
REMARK   36  A    between atoms: _85  and  _86
REMARK   37  A    between atoms: _85  and  _88
REMARK   38  A    between atoms: _88  and  _89
REMARK   39  A    between atoms: _92  and  _94
REMARK   40  A    between atoms: _94  and  _95
REMARK   41  A    between atoms: _94  and  _97
REMARK   42  A    between atoms: _100  and  _102
REMARK   43  A    between atoms: _102  and  _103
REMARK   44  A    between atoms: _102  and  _105
REMARK   45  A    between atoms: _105  and  _106
REMARK   46  A    between atoms: _106  and  _107
REMARK   47  A    between atoms: _107  and  _108
REMARK   48  A    between atoms: _108  and  _109
REMARK   49  A    between atoms: _113  and  _115
REMARK   50  A    between atoms: _115  and  _116
REMARK   51  A    between atoms: _115  and  _118
REMARK   52  A    between atoms: _118  and  _119
REMARK   53  A    between atoms: _122  and  _124
REMARK   54  A    between atoms: _124  and  _125
REMARK   55  A    between atoms: _127  and  _129
REMARK   56  A    between atoms: _129  and  _130
REMARK   57  A    between atoms: _132  and  _134
REMARK   58  A    between atoms: _134  and  _135
REMARK   59  A    between atoms: _134  and  _137
REMARK   60  A    between atoms: _137  and  _138
REMARK   61  A    between atoms: _141  and  _143
REMARK   62  A    between atoms: _143  and  _144
REMARK   63  A    between atoms: _146  and  _148
REMARK   64  A    between atoms: _148  and  _149
REMARK   65  A    between atoms: _151  and  _153
REMARK   66  A    between atoms: _153  and  _154
REMARK   67  A    between atoms: _153  and  _156
REMARK   68  A    between atoms: _156  and  _157
REMARK   69  A    between atoms: _160  and  _162
REMARK   70  A    between atoms: _162  and  _163
REMARK   71  A    between atoms: _162  and  _165
REMARK   72  A    between atoms: _168  and  _170
REMARK   73  A    between atoms: _170  and  _171
REMARK   74  A    between atoms: _170  and  _173
REMARK   75  A    between atoms: _173  and  _174
REMARK   76  A    between atoms: _178  and  _179
REMARK   77  A    between atoms: _184  and  _186
REMARK   78  A    between atoms: _186  and  _187
REMARK   79  A    between atoms: _186  and  _189
REMARK   80  A    between atoms: _189  and  _190
REMARK   81  A    between atoms: _194  and  _195
REMARK   82  A    between atoms: _200  and  _202
REMARK   83  A    between atoms: _202  and  _203
REMARK   84  A    between atoms: _202  and  _205
REMARK   85  A    between atoms: _208  and  _210
REMARK   86  A    between atoms: _210  and  _211
REMARK   87  A    between atoms: _210  and  _213
REMARK   88  A    between atoms: _213  and  _214
REMARK   89  A    between atoms: _219  and  _221
REMARK   90  A    between atoms: _221  and  _222
REMARK   91  A    between atoms: _221  and  _224
REMARK   92  A    between atoms: _227  and  _229
REMARK   93  A    between atoms: _229  and  _230
REMARK   94  A    between atoms: _229  and  _232
REMARK   95  A    between atoms: _232  and  _233
REMARK   96  A    between atoms: _236  and  _238
REMARK   97  A    between atoms: _238  and  _239
REMARK   98  A    between atoms: _241  and  _243
REMARK   99  A    between atoms: _243  and  _244
REMARK  100  A    between atoms: _243  and  _246
REMARK  101  A    between atoms: _246  and  _247
REMARK  102  A    between atoms: _247  and  _248
REMARK  103  A    between atoms: _248  and  _249
REMARK  104  A    between atoms: _258  and  _260
REMARK  105  A    between atoms: _260  and  _261
REMARK  106  A    between atoms: _260  and  _263
REMARK  107  A    between atoms: _263  and  _264
REMARK  108  A    between atoms: _269  and  _271
REMARK  109  A    between atoms: _271  and  _272
REMARK  110  A    between atoms: _271  and  _274
REMARK  111  A    between atoms: _274  and  _275
REMARK  112  A    between atoms: _275  and  _276
REMARK  113  A    between atoms: _276  and  _277
REMARK  114  A    between atoms: _286  and  _288
REMARK  115  A    between atoms: _288  and  _289
REMARK  116  A    between atoms: _288  and  _291
REMARK  117  A    between atoms: _291  and  _292
REMARK  118  A    between atoms: _295  and  _297
REMARK  119  A    between atoms: _297  and  _298
REMARK  120  A    between atoms: _297  and  _300
REMARK  121  A    between atoms: _300  and  _301
REMARK  122  A    between atoms: _304  and  _306
REMARK  123  A    between atoms: _306  and  _307
REMARK  124  A    between atoms: _306  and  _309
REMARK  125  A    between atoms: _309  and  _310
REMARK  126  A    between atoms: _313  and  _315
REMARK  127  A    between atoms: _315  and  _316
REMARK  128  A    between atoms: _315  and  _318
REMARK  129  A    between atoms: _318  and  _319
REMARK  130  A    between atoms: _322  and  _324
REMARK  131  A    between atoms: _324  and  _325
REMARK  132  A    between atoms: _327  and  _329
REMARK  133  A    between atoms: _329  and  _330
REMARK  134  A    between atoms: _333  and  _335
REMARK  135  A    between atoms: _335  and  _336
REMARK  136  A    between atoms: _335  and  _338
REMARK  137  A    between atoms: _338  and  _339
REMARK  138  A    between atoms: _342  and  _344
REMARK  139  A    between atoms: _344  and  _345
REMARK  140  A    between atoms: _344  and  _347
REMARK  141  A    between atoms: _347  and  _348
REMARK  142  A    between atoms: _351  and  _353
REMARK  143  A    between atoms: _353  and  _354
REMARK  144  A    between atoms: _353  and  _356
REMARK  145  A    between atoms: _356  and  _357
REMARK  146  A    between atoms: _360  and  _362
REMARK  147  A    between atoms: _362  and  _363
REMARK  148  A    between atoms: _362  and  _365
REMARK  149  A    between atoms: _368  and  _370
REMARK  150  A    between atoms: _370  and  _371
REMARK  151  A    between atoms: _370  and  _373
REMARK  152  A    between atoms: _373  and  _374
REMARK  153  A    between atoms: _374  and  _375
REMARK  154  A    between atoms: _377  and  _379
REMARK  155  A    between atoms: _379  and  _380
REMARK  156  A    between atoms: _379  and  _382
REMARK  157  A    between atoms: _382  and  _383
REMARK  158  A    between atoms: _386  and  _388
REMARK  159  A    between atoms: _388  and  _389
REMARK  160  A    between atoms: _391  and  _393
REMARK  161  A    between atoms: _393  and  _394
REMARK  162  A    between atoms: _396  and  _398
REMARK  163  A    between atoms: _398  and  _399
REMARK  164  A    between atoms: _398  and  _401
REMARK  165  A    between atoms: _401  and  _402
REMARK  166  A    between atoms: _405  and  _407
REMARK  167  A    between atoms: _407  and  _408
REMARK  168  A    between atoms: _410  and  _412
REMARK  169  A    between atoms: _412  and  _413
REMARK  170  A    between atoms: _415  and  _417
REMARK  171  A    between atoms: _417  and  _418
REMARK  172  A    between atoms: _417  and  _420
REMARK  173  A    between atoms: _420  and  _421
REMARK  174  A    between atoms: _424  and  _426
REMARK  175  A    between atoms: _426  and  _427
REMARK  176  A    between atoms: _426  and  _429
REMARK  177  A    between atoms: _429  and  _430
REMARK  178  A    between atoms: _434  and  _435
REMARK  179  A    between atoms: _440  and  _442
REMARK  180  A    between atoms: _442  and  _443
REMARK  181  A    between atoms: _442  and  _445
REMARK  182  A    between atoms: _445  and  _446
REMARK  183  A    between atoms: _450  and  _451
REMARK  184  A    between atoms: _456  and  _458
REMARK  185  A    between atoms: _458  and  _459
REMARK  186  A    between atoms: _458  and  _461
REMARK  187  A    between atoms: _464  and  _466
REMARK  188  A    between atoms: _466  and  _467
REMARK  189  A    between atoms: _466  and  _469
REMARK  190  A    between atoms: _469  and  _470
REMARK  191  A    between atoms: _475  and  _477
REMARK  192  A    between atoms: _477  and  _478
REMARK  193  A    between atoms: _477  and  _480
REMARK  194  A    between atoms: _483  and  _485
REMARK  195  A    between atoms: _485  and  _486
REMARK  196  A    between atoms: _485  and  _488
REMARK  197  A    between atoms: _488  and  _489
REMARK  198  A    between atoms: _492  and  _494
REMARK  199  A    between atoms: _494  and  _495
REMARK  200  A    between atoms: _497  and  _499
REMARK  201  A    between atoms: _499  and  _500
REMARK  202  A    between atoms: _499  and  _502
REMARK  203  A    between atoms: _502  and  _503
REMARK  204  A    between atoms: _503  and  _504
REMARK  205  A    between atoms: _504  and  _505
REMARK  206  A    between atoms: _514  and  _516
REMARK  207  A    between atoms: _516  and  _517
REMARK  208  A    between atoms: _516  and  _519
REMARK  209  A    between atoms: _519  and  _520
REMARK                            x       y       z     vdW  Elec       q    Type
REMARK                         _______ _______ _______ _____ _____    ______ ____
ROOT
ATOM      1  CA  VAL A   1      -2.238  12.297  40.248  0.00  0.00    +0.133 C 
ENDROOT
BRANCH   1   2
ATOM      2  CB  VAL A   1      -3.438  12.939  39.521  0.00  0.00    +0.023 C 
ATOM      3  CG2 VAL A   1      -4.490  13.561  40.434  0.00  0.00    +0.002 C 
ATOM      4  CG1 VAL A   1      -2.996  13.768  38.315  0.00  0.00    +0.002 C 
ENDBRANCH   1   2
BRANCH   1   5
ATOM      5  N   VAL A   1      -2.482  10.881  40.053  0.00  0.00    -0.239 NA
ATOM      6  H   VAL A   1      -3.150  10.366  40.662  0.00  0.00    +0.142 HD
ENDBRANCH   1   5
BRANCH   1   7
ATOM      7  C   VAL A   1      -2.210  12.497  41.745  0.00  0.00    +0.224 C 
ATOM      8  O   VAL A   1      -2.702  11.652  42.480  0.00  0.00    -0.287 OA
ENDBRANCH   1   7
TORSDOF 3
REMARK  Name = ../refined-set-2016/1mes/1mes_pocket.pdb
REMARK  209 active torsions:
REMARK  status: ('A' for Active; 'I' for Inactive)
REMARK    1  A    between atoms: _1  and  _3
REMARK    2  A    between atoms: _3  and  _4
REMARK    3  A    between atoms: _3  and  _6
REMARK    4  A    between atoms: _6  and  _7
REMARK    5  A    between atoms: _7  and  _8
REMARK    6  A    between atoms: _8  and  _9
REMARK    7  A    between atoms: _18  and  _20
REMARK    8  A    between atoms: _20  and  _21
REMARK    9  A    between atoms: _20  and  _23
REMARK   10  A    between atoms: _23  and  _24
REMARK   11  A    between atoms: _27  and  _29
REMARK   12  A    between atoms: _29  and  _30
REMARK   13  A    between atoms: _29  and  _32
REMARK   14  A    between atoms: _32  and  _33
REMARK   15  A    between atoms: _36  and  _38
REMARK   16  A    between atoms: _38  and  _39
REMARK   17  A    between atoms: _38  and  _41
REMARK   18  A    between atoms: _41  and  _42
REMARK   19  A    between atoms: _45  and  _47
REMARK   20  A    between atoms: _47  and  _48
REMARK   21  A    between atoms: _47  and  _50
REMARK   22  A    between atoms: _50  and  _51
REMARK   23  A    between atoms: _54  and  _56
REMARK   24  A    between atoms: _56  and  _57
REMARK   25  A    between atoms: _59  and  _61
REMARK   26  A    between atoms: _61  and  _62
REMARK   27  A    between atoms: _65  and  _67
REMARK   28  A    between atoms: _67  and  _68
REMARK   29  A    between atoms: _67  and  _70
REMARK   30  A    between atoms: _70  and  _71
REMARK   31  A    between atoms: _74  and  _76
REMARK   32  A    between atoms: _76  and  _77
REMARK   33  A    between atoms: _76  and  _79
REMARK   34  A    between atoms: _79  and  _80
REMARK   35  A    between atoms: _83  and  _85
REMARK   36  A    between atoms: _85  and  _86
REMARK   37  A    between atoms: _85  and  _88
REMARK   38  A    between atoms: _88  and  _89
REMARK   39  A    between atoms: _92  and  _94
REMARK   40  A    between atoms: _94  and  _95
REMARK   41  A    between atoms: _94  and  _97
REMARK   42  A    between atoms: _100  and  _102
REMARK   43  A    between atoms: _102  and  _103
REMARK   44  A    between atoms: _102  and  _105
REMARK   45  A    between atoms: _105  and  _106
REMARK   46  A    between atoms: _106  and  _107
REMARK   47  A    between atoms: _107  and  _108
REMARK   48  A    between atoms: _108  and  _109
REMARK   49  A    between atoms: _113  and  _115
REMARK   50  A    between atoms: _115  and  _116
REMARK   51  A    between atoms: _115  and  _118
REMARK   52  A    between atoms: _118  and  _119
REMARK   53  A    between atoms: _122  and  _124
REMARK   54  A    between atoms: _124  and  _125
REMARK   55  A    between atoms: _127  and  _129
REMARK   56  A    between atoms: _129  and  _130
REMARK   57  A    between atoms: _132  and  _134
REMARK   58  A    between atoms: _134  and  _135
REMARK   59  A    between atoms: _134  and  _137
REMARK   60  A    between atoms: _137  and  _138
REMARK   61  A    between atoms: _141  and  _143
REMARK   62  A    between atoms: _143  and  _144
REMARK   63  A    between atoms: _146  and  _148
REMARK   64  A    between atoms: _148  and  _149
REMARK   65  A    between atoms: _151  and  _153
REMARK   66  A    between atoms: _153  and  _154
REMARK   67  A    between atoms: _153  and  _156
REMARK   68  A    between atoms: _156  and  _157
REMARK   69  A    between atoms: _160  and  _162
REMARK   70  A    between atoms: _162  and  _163
REMARK   71  A    between atoms: _162  and  _165
REMARK   72  A    between atoms: _168  and  _170
REMARK   73  A    between atoms: _170  and  _171
REMARK   74  A    between atoms: _170  and  _173
REMARK   75  A    between atoms: _173  and  _174
REMARK   76  A    between atoms: _178  and  _179
REMARK   77  A    between atoms: _184  and  _186
REMARK   78  A    between atoms: _186  and  _187
REMARK   79  A    between atoms: _186  and  _189
REMARK   80  A    between atoms: _189  and  _190
REMARK   81  A    between atoms: _194  and  _195
REMARK   82  A    between atoms: _200  and  _202
REMARK   83  A    between atoms: _202  and  _203
REMARK   84  A    between atoms: _202  and  _205
REMARK   85  A    between atoms: _208  and  _210
REMARK   86  A    between atoms: _210  and  _211
REMARK   87  A    between atoms: _210  and  _213
REMARK   88  A    between atoms: _213  and  _214
REMARK   89  A    between atoms: _219  and  _221
REMARK   90  A    between atoms: _221  and  _222
REMARK   91  A    between atoms: _221  and  _224
REMARK   92  A    between atoms: _227  and  _229
REMARK   93  A    between atoms: _229  and  _230
REMARK   94  A    between atoms: _229  and  _232
REMARK   95  A    between atoms: _232  and  _233
REMARK   96  A    between atoms: _236  and  _238
REMARK   97  A    between atoms: _238  and  _239
REMARK   98  A    between atoms: _241  and  _243
REMARK   99  A    between atoms: _243  and  _244
REMARK  100  A    between atoms: _243  and  _246
REMARK  101  A    between atoms: _246  and  _247
REMARK  102  A    between atoms: _247  and  _248
REMARK  103  A    between atoms: _248  and  _249
REMARK  104  A    between atoms: _258  and  _260
REMARK  105  A    between atoms: _260  and  _261
REMARK  106  A    between atoms: _260  and  _263
REMARK  107  A    between atoms: _263  and  _264
REMARK  108  A    between atoms: _269  and  _271
REMARK  109  A    between atoms: _271  and  _272
REMARK  110  A    between atoms: _271  and  _274
REMARK  111  A    between atoms: _274  and  _275
REMARK  112  A    between atoms: _275  and  _276
REMARK  113  A    between atoms: _276  and  _277
REMARK  114  A    between atoms: _286  and  _288
REMARK  115  A    between atoms: _288  and  _289
REMARK  116  A    between atoms: _288  and  _291
REMARK  117  A    between atoms: _291  and  _292
REMARK  118  A    between atoms: _295  and  _297
REMARK  119  A    between atoms: _297  and  _298
REMARK  120  A    between atoms: _297  and  _300
REMARK  121  A    between atoms: _300  and  _301
REMARK  122  A    between atoms: _304  and  _306
REMARK  123  A    between atoms: _306  and  _307
REMARK  124  A    between atoms: _306  and  _309
REMARK  125  A    between atoms: _309  and  _310
REMARK  126  A    between atoms: _313  and  _315
REMARK  127  A    between atoms: _315  and  _316
REMARK  128  A    between atoms: _315  and  _318
REMARK  129  A    between atoms: _318  and  _319
REMARK  130  A    between atoms: _322  and  _324
REMARK  131  A    between atoms: _324  and  _325
REMARK  132  A    between atoms: _327  and  _329
REMARK  133  A    between atoms: _329  and  _330
REMARK  134  A    between atoms: _333  and  _335
REMARK  135  A    between atoms: _335  and  _336
REMARK  136  A    between atoms: _335  and  _338
REMARK  137  A    between atoms: _338  and  _339
REMARK  138  A    between atoms: _342  and  _344
REMARK  139  A    between atoms: _344  and  _345
REMARK  140  A    between atoms: _344  and  _347
REMARK  141  A    between atoms: _347  and  _348
REMARK  142  A    between atoms: _351  and  _353
REMARK  143  A    between atoms: _353  and  _354
REMARK  144  A    between atoms: _353  and  _356
REMARK  145  A    between atoms: _356  and  _357
REMARK  146  A    between atoms: _360  and  _362
REMARK  147  A    between atoms: _362  and  _363
REMARK  148  A    between atoms: _362  and  _365
REMARK  149  A    between atoms: _368  and  _370
REMARK  150  A    between atoms: _370  and  _371
REMARK  151  A    between atoms: _370  and  _373
REMARK  152  A    between atoms: _373  and  _374
REMARK  153  A    between atoms: _374  and  _375
REMARK  154  A    between atoms: _377  and  _379
REMARK  155  A    between atoms: _379  and  _380
REMARK  156  A    between atoms: _379  and  _382
REMARK  157  A    between atoms: _382  and  _383
REMARK  158  A    between atoms: _386  and  _388
REMARK  159  A    between atoms: _388  and  _389
REMARK  160  A    between atoms: _391  and  _393
REMARK  161  A    between atoms: _393  and  _394
REMARK  162  A    between atoms: _396  and  _398
REMARK  163  A    between atoms: _398  and  _399
REMARK  164  A    between atoms: _398  and  _401
REMARK  165  A    between atoms: _401  and  _402
REMARK  166  A    between atoms: _405  and  _407
REMARK  167  A    between atoms: _407  and  _408
REMARK  168  A    between atoms: _410  and  _412
REMARK  169  A    between atoms: _412  and  _413
REMARK  170  A    between atoms: _415  and  _417
REMARK  171  A    between atoms: _417  and  _418
REMARK  172  A    between atoms: _417  and  _420
REMARK  173  A    between atoms: _420  and  _421
REMARK  174  A    between atoms: _424  and  _426
REMARK  175  A    between atoms: _426  and  _427
REMARK  176  A    between atoms: _426  and  _429
REMARK  177  A    between atoms: _429  and  _430
REMARK  178  A    between atoms: _434  and  _435
REMARK  179  A    between atoms: _440  and  _442
REMARK  180  A    between atoms: _442  and  _443
REMARK  181  A    between atoms: _442  and  _445
REMARK  182  A    between atoms: _445  and  _446
REMARK  183  A    between atoms: _450  and  _451
REMARK  184  A    between atoms: _456  and  _458
REMARK  185  A    between atoms: _458  and  _459
REMARK  186  A    between atoms: _458  and  _461
REMARK  187  A    between atoms: _464  and  _466
REMARK  188  A    between atoms: _466  and  _467
REMARK  189  A    between atoms: _466  and  _469
REMARK  190  A    between atoms: _469  and  _470
REMARK  191  A    between atoms: _475  and  _477
REMARK  192  A    between atoms: _477  and  _478
REMARK  193  A    between atoms: _477  and  _480
REMARK  194  A    between atoms: _483  and  _485
REMARK  195  A    between atoms: _485  and  _486
REMARK  196  A    between atoms: _485  and  _488
REMARK  197  A    between atoms: _488  and  _489
REMARK  198  A    between atoms: _492  and  _494
REMARK  199  A    between atoms: _494  and  _495
REMARK  200  A    between atoms: _497  and  _499
REMARK  201  A    between atoms: _499  and  _500
REMARK  202  A    between atoms: _499  and  _502
REMARK  203  A    between atoms: _502  and  _503
REMARK  204  A    between atoms: _503  and  _504
REMARK  205  A    between atoms: _504  and  _505
REMARK  206  A    between atoms: _514  and  _516
REMARK  207  A    between atoms: _516  and  _517
REMARK  208  A    between atoms: _516  and  _519
REMARK  209  A    between atoms: _519  and  _520
REMARK                            x       y       z     vdW  Elec       q    Type
REMARK                         _______ _______ _______ _____ _____    ______ ____
ROOT
ATOM      1  CA  LEU A   1      -4.494  17.749  41.058  0.00  0.00    +0.133 C 
ENDROOT
BRANCH   1   2
ATOM      2  N   LEU A   1      -5.098  19.050  41.272  0.00  0.00    -0.239 NA
ATOM      3  H   LEU A   1      -5.565  19.530  40.476  0.00  0.00    +0.142 HD
ENDBRANCH   1   2
BRANCH   1   4
ATOM      4  C   LEU A   1      -3.217  18.038  40.328  0.00  0.00    +0.224 C 
ATOM      5  O   LEU A   1      -3.233  18.795  39.372  0.00  0.00    -0.287 OA
ENDBRANCH   1   4
BRANCH   1   6
ATOM      6  CB  LEU A   1      -5.465  16.969  40.158  0.00  0.00    +0.025 C 
BRANCH   6   7
ATOM      7  CG  LEU A   1      -6.637  16.213  40.808  0.00  0.00    +0.002 C 
ATOM      8  CD2 LEU A   1      -7.110  16.739  42.160  0.00  0.00    +0.000 C 
ATOM      9  CD1 LEU A   1      -7.793  16.067  39.822  0.00  0.00    +0.000 C 
ENDBRANCH   6   7
ENDBRANCH   1   6
TORSDOF 4
REMARK  Name = ../refined-set-2016/1mes/1mes_pocket.pdb
REMARK  209 active torsions:
REMARK  status: ('A' for Active; 'I' for Inactive)
REMARK    1  A    between atoms: _1  and  _3
REMARK    2  A    between atoms: _3  and  _4
REMARK    3  A    between atoms: _3  and  _6
REMARK    4  A    between atoms: _6  and  _7
REMARK    5  A    between atoms: _7  and  _8
REMARK    6  A    between atoms: _8  and  _9
REMARK    7  A    between atoms: _18  and  _20
REMARK    8  A    between atoms: _20  and  _21
REMARK    9  A    between atoms: _20  and  _23
REMARK   10  A    between atoms: _23  and  _24
REMARK   11  A    between atoms: _27  and  _29
REMARK   12  A    between atoms: _29  and  _30
REMARK   13  A    between atoms: _29  and  _32
REMARK   14  A    between atoms: _32  and  _33
REMARK   15  A    between atoms: _36  and  _38
REMARK   16  A    between atoms: _38  and  _39
REMARK   17  A    between atoms: _38  and  _41
REMARK   18  A    between atoms: _41  and  _42
REMARK   19  A    between atoms: _45  and  _47
REMARK   20  A    between atoms: _47  and  _48
REMARK   21  A    between atoms: _47  and  _50
REMARK   22  A    between atoms: _50  and  _51
REMARK   23  A    between atoms: _54  and  _56
REMARK   24  A    between atoms: _56  and  _57
REMARK   25  A    between atoms: _59  and  _61
REMARK   26  A    between atoms: _61  and  _62
REMARK   27  A    between atoms: _65  and  _67
REMARK   28  A    between atoms: _67  and  _68
REMARK   29  A    between atoms: _67  and  _70
REMARK   30  A    between atoms: _70  and  _71
REMARK   31  A    between atoms: _74  and  _76
REMARK   32  A    between atoms: _76  and  _77
REMARK   33  A    between atoms: _76  and  _79
REMARK   34  A    between atoms: _79  and  _80
REMARK   35  A    between atoms: _83  and  _85
REMARK   36  A    between atoms: _85  and  _86
REMARK   37  A    between atoms: _85  and  _88
REMARK   38  A    between atoms: _88  and  _89
REMARK   39  A    between atoms: _92  and  _94
REMARK   40  A    between atoms: _94  and  _95
REMARK   41  A    between atoms: _94  and  _97
REMARK   42  A    between atoms: _100  and  _102
REMARK   43  A    between atoms: _102  and  _103
REMARK   44  A    between atoms: _102  and  _105
REMARK   45  A    between atoms: _105  and  _106
REMARK   46  A    between atoms: _106  and  _107
REMARK   47  A    between atoms: _107  and  _108
REMARK   48  A    between atoms: _108  and  _109
REMARK   49  A    between atoms: _113  and  _115
REMARK   50  A    between atoms: _115  and  _116
REMARK   51  A    between atoms: _115  and  _118
REMARK   52  A    between atoms: _118  and  _119
REMARK   53  A    between atoms: _122  and  _124
REMARK   54  A    between atoms: _124  and  _125
REMARK   55  A    between atoms: _127  and  _129
REMARK   56  A    between atoms: _129  and  _130
REMARK   57  A    between atoms: _132  and  _134
REMARK   58  A    between atoms: _134  and  _135
REMARK   59  A    between atoms: _134  and  _137
REMARK   60  A    between atoms: _137  and  _138
REMARK   61  A    between atoms: _141  and  _143
REMARK   62  A    between atoms: _143  and  _144
REMARK   63  A    between atoms: _146  and  _148
REMARK   64  A    between atoms: _148  and  _149
REMARK   65  A    between atoms: _151  and  _153
REMARK   66  A    between atoms: _153  and  _154
REMARK   67  A    between atoms: _153  and  _156
REMARK   68  A    between atoms: _156  and  _157
REMARK   69  A    between atoms: _160  and  _162
REMARK   70  A    between atoms: _162  and  _163
REMARK   71  A    between atoms: _162  and  _165
REMARK   72  A    between atoms: _168  and  _170
REMARK   73  A    between atoms: _170  and  _171
REMARK   74  A    between atoms: _170  and  _173
REMARK   75  A    between atoms: _173  and  _174
REMARK   76  A    between atoms: _178  and  _179
REMARK   77  A    between atoms: _184  and  _186
REMARK   78  A    between atoms: _186  and  _187
REMARK   79  A    between atoms: _186  and  _189
REMARK   80  A    between atoms: _189  and  _190
REMARK   81  A    between atoms: _194  and  _195
REMARK   82  A    between atoms: _200  and  _202
REMARK   83  A    between atoms: _202  and  _203
REMARK   84  A    between atoms: _202  and  _205
REMARK   85  A    between atoms: _208  and  _210
REMARK   86  A    between atoms: _210  and  _211
REMARK   87  A    between atoms: _210  and  _213
REMARK   88  A    between atoms: _213  and  _214
REMARK   89  A    between atoms: _219  and  _221
REMARK   90  A    between atoms: _221  and  _222
REMARK   91  A    between atoms: _221  and  _224
REMARK   92  A    between atoms: _227  and  _229
REMARK   93  A    between atoms: _229  and  _230
REMARK   94  A    between atoms: _229  and  _232
REMARK   95  A    between atoms: _232  and  _233
REMARK   96  A    between atoms: _236  and  _238
REMARK   97  A    between atoms: _238  and  _239
REMARK   98  A    between atoms: _241  and  _243
REMARK   99  A    between atoms: _243  and  _244
REMARK  100  A    between atoms: _243  and  _246
REMARK  101  A    between atoms: _246  and  _247
REMARK  102  A    between atoms: _247  and  _248
REMARK  103  A    between atoms: _248  and  _249
REMARK  104  A    between atoms: _258  and  _260
REMARK  105  A    between atoms: _260  and  _261
REMARK  106  A    between atoms: _260  and  _263
REMARK  107  A    between atoms: _263  and  _264
REMARK  108  A    between atoms: _269  and  _271
REMARK  109  A    between atoms: _271  and  _272
REMARK  110  A    between atoms: _271  and  _274
REMARK  111  A    between atoms: _274  and  _275
REMARK  112  A    between atoms: _275  and  _276
REMARK  113  A    between atoms: _276  and  _277
REMARK  114  A    between atoms: _286  and  _288
REMARK  115  A    between atoms: _288  and  _289
REMARK  116  A    between atoms: _288  and  _291
REMARK  117  A    between atoms: _291  and  _292
REMARK  118  A    between atoms: _295  and  _297
REMARK  119  A    between atoms: _297  and  _298
REMARK  120  A    between atoms: _297  and  _300
REMARK  121  A    between atoms: _300  and  _301
REMARK  122  A    between atoms: _304  and  _306
REMARK  123  A    between atoms: _306  and  _307
REMARK  124  A    between atoms: _306  and  _309
REMARK  125  A    between atoms: _309  and  _310
REMARK  126  A    between atoms: _313  and  _315
REMARK  127  A    between atoms: _315  and  _316
REMARK  128  A    between atoms: _315  and  _318
REMARK  129  A    between atoms: _318  and  _319
REMARK  130  A    between atoms: _322  and  _324
REMARK  131  A    between atoms: _324  and  _325
REMARK  132  A    between atoms: _327  and  _329
REMARK  133  A    between atoms: _329  and  _330
REMARK  134  A    between atoms: _333  and  _335
REMARK  135  A    between atoms: _335  and  _336
REMARK  136  A    between atoms: _335  and  _338
REMARK  137  A    between atoms: _338  and  _339
REMARK  138  A    between atoms: _342  and  _344
REMARK  139  A    between atoms: _344  and  _345
REMARK  140  A    between atoms: _344  and  _347
REMARK  141  A    between atoms: _347  and  _348
REMARK  142  A    between atoms: _351  and  _353
REMARK  143  A    between atoms: _353  and  _354
REMARK  144  A    between atoms: _353  and  _356
REMARK  145  A    between atoms: _356  and  _357
REMARK  146  A    between atoms: _360  and  _362
REMARK  147  A    between atoms: _362  and  _363
REMARK  148  A    between atoms: _362  and  _365
REMARK  149  A    between atoms: _368  and  _370
REMARK  150  A    between atoms: _370  and  _371
REMARK  151  A    between atoms: _370  and  _373
REMARK  152  A    between atoms: _373  and  _374
REMARK  153  A    between atoms: _374  and  _375
REMARK  154  A    between atoms: _377  and  _379
REMARK  155  A    between atoms: _379  and  _380
REMARK  156  A    between atoms: _379  and  _382
REMARK  157  A    between atoms: _382  and  _383
REMARK  158  A    between atoms: _386  and  _388
REMARK  159  A    between atoms: _388  and  _389
REMARK  160  A    between atoms: _391  and  _393
REMARK  161  A    between atoms: _393  and  _394
REMARK  162  A    between atoms: _396  and  _398
REMARK  163  A    between atoms: _398  and  _399
REMARK  164  A    between atoms: _398  and  _401
REMARK  165  A    between atoms: _401  and  _402
REMARK  166  A    between atoms: _405  and  _407
REMARK  167  A    between atoms: _407  and  _408
REMARK  168  A    between atoms: _410  and  _412
REMARK  169  A    between atoms: _412  and  _413
REMARK  170  A    between atoms: _415  and  _417
REMARK  171  A    between atoms: _417  and  _418
REMARK  172  A    between atoms: _417  and  _420
REMARK  173  A    between atoms: _420  and  _421
REMARK  174  A    between atoms: _424  and  _426
REMARK  175  A    between atoms: _426  and  _427
REMARK  176  A    between atoms: _426  and  _429
REMARK  177  A    between atoms: _429  and  _430
REMARK  178  A    between atoms: _434  and  _435
REMARK  179  A    between atoms: _440  and  _442
REMARK  180  A    between atoms: _442  and  _443
REMARK  181  A    between atoms: _442  and  _445
REMARK  182  A    between atoms: _445  and  _446
REMARK  183  A    between atoms: _450  and  _451
REMARK  184  A    between atoms: _456  and  _458
REMARK  185  A    between atoms: _458  and  _459
REMARK  186  A    between atoms: _458  and  _461
REMARK  187  A    between atoms: _464  and  _466
REMARK  188  A    between atoms: _466  and  _467
REMARK  189  A    between atoms: _466  and  _469
REMARK  190  A    between atoms: _469  and  _470
REMARK  191  A    between atoms: _475  and  _477
REMARK  192  A    between atoms: _477  and  _478
REMARK  193  A    between atoms: _477  and  _480
REMARK  194  A    between atoms: _483  and  _485
REMARK  195  A    between atoms: _485  and  _486
REMARK  196  A    between atoms: _485  and  _488
REMARK  197  A    between atoms: _488  and  _489
REMARK  198  A    between atoms: _492  and  _494
REMARK  199  A    between atoms: _494  and  _495
REMARK  200  A    between atoms: _497  and  _499
REMARK  201  A    between atoms: _499  and  _500
REMARK  202  A    between atoms: _499  and  _502
REMARK  203  A    between atoms: _502  and  _503
REMARK  204  A    between atoms: _503  and  _504
REMARK  205  A    between atoms: _504  and  _505
REMARK  206  A    between atoms: _514  and  _516
REMARK  207  A    between atoms: _516  and  _517
REMARK  208  A    between atoms: _516  and  _519
REMARK  209  A    between atoms: _519  and  _520
REMARK                            x       y       z     vdW  Elec       q    Type
REMARK                         _______ _______ _______ _____ _____    ______ ____
ROOT
ATOM      1  CA  VAL A   6      -5.987  22.822  32.676  0.00  0.00    +0.149 C 
ENDROOT
BRANCH   1   3
ATOM      2  C   ASN A   5      -3.618  23.030  32.273  0.00  0.00    +0.241 C 
ATOM      3  N   VAL A   6      -4.599  22.469  32.961  0.00  0.00    -0.297 N 
ATOM      4  H   VAL A   6      -4.381  21.776  33.705  0.00  0.00    +0.150 HD
ATOM      5  O   ASN A   5      -3.788  23.836  31.369  0.00  0.00    -0.273 OA
BRANCH   2   6
ATOM      6  CA  ASN A   5      -2.216  22.628  32.614  0.00  0.00    +0.158 C 
BRANCH   6   9
ATOM      7  C   VAL A   4      -1.728  21.062  30.876  0.00  0.00    +0.241 C 
ATOM      8  O   VAL A   4      -2.385  20.207  31.447  0.00  0.00    -0.273 OA
ATOM      9  N   ASN A   5      -1.579  22.286  31.339  0.00  0.00    -0.297 N 
ATOM     10  H   ASN A   5      -1.024  22.991  30.814  0.00  0.00    +0.150 HD
BRANCH   7  11
ATOM     11  CA  VAL A   4      -1.008  20.784  29.591  0.00  0.00    +0.149 C 
BRANCH  11  13
ATOM     12  C   PRO A   3       0.469  18.955  29.040  0.00  0.00    +0.241 C 
ATOM     13  N   VAL A   4      -0.707  19.354  29.522  0.00  0.00    -0.297 N 
ATOM     14  H   VAL A   4      -1.405  18.655  29.847  0.00  0.00    +0.150 HD
ATOM     15  O   PRO A   3       1.307  19.751  28.635  0.00  0.00    -0.273 OA
BRANCH  12  22
ATOM     16  C   THR A   2       0.185  16.682  31.163  0.00  0.00    +0.246 C 
ATOM     17  O   THR A   2       1.134  17.306  31.595  0.00  0.00    -0.273 OA
ATOM     18  N   PRO A   3      -0.082  16.594  29.872  0.00  0.00    -0.272 N 
ATOM     19  CD  PRO A   3      -1.024  15.694  29.202  0.00  0.00    +0.094 C 
ATOM     20  CG  PRO A   3      -1.025  16.167  27.752  0.00  0.00    +0.024 C 
ATOM     21  CB  PRO A   3       0.347  16.825  27.586  0.00  0.00    +0.031 C 
ATOM     22  CA  PRO A   3       0.709  17.439  28.961  0.00  0.00    +0.152 C 
BRANCH  16  23
ATOM     23  CA  THR A   2      -0.746  15.987  32.114  0.00  0.00    +0.176 C 
BRANCH  23  25
ATOM     24  C   PRO A   1       0.627  14.409  33.218  0.00  0.00    +0.239 C 
ATOM     25  N   THR A   2       0.064  15.589  33.254  0.00  0.00    -0.295 N 
ATOM     26  H   THR A   2       0.191  16.221  34.070  0.00  0.00    +0.150 HD
ATOM     27  O   PRO A   1       0.279  13.568  32.416  0.00  0.00    -0.274 OA
BRANCH  24  32
ATOM     28  N   PRO A   1       1.250  14.075  35.596  0.00  0.00    -0.210 NA
ATOM     29  CD  PRO A   1       1.184  12.721  36.117  0.00  0.00    +0.089 C 
ATOM     30  CG  PRO A   1       1.467  11.838  34.901  0.00  0.00    +0.021 C 
ATOM     31  CB  PRO A   1       2.342  12.741  34.037  0.00  0.00    +0.028 C 
ATOM     32  CA  PRO A   1       1.739  14.147  34.215  0.00  0.00    +0.149 C 
ENDBRANCH  24  32
ENDBRANCH  23  25
BRANCH  23  33
ATOM     33  CB  THR A   2      -1.785  16.971  32.643  0.00  0.00    +0.137 C 
ATOM     34  CG2 THR A   2      -1.164  18.136  33.402  0.00  0.00    +0.034 C 
BRANCH  33  35
ATOM     35  OG1 THR A   2      -2.601  17.454  31.579  0.00  0.00    -0.382 OA
ATOM     36  HG1 THR A   2      -3.269  18.090  31.939  0.00  0.00    +0.210 HD
ENDBRANCH  33  35
ENDBRANCH  23  33
ENDBRANCH  16  23
ENDBRANCH  12  22
ENDBRANCH  11  13
BRANCH  11  37
ATOM     37  CB  VAL A   4      -1.876  21.298  28.420  0.00  0.00    +0.027 C 
ATOM     38  CG2 VAL A   4      -3.277  20.725  28.403  0.00  0.00    +0.002 C 
ATOM     39  CG1 VAL A   4      -1.247  20.999  27.078  0.00  0.00    +0.002 C 
ENDBRANCH  11  37
ENDBRANCH   7  11
ENDBRANCH   6   9
BRANCH   6  40
ATOM     40  CB  ASN A   5      -1.542  23.851  33.273  0.00  0.00    +0.114 C 
BRANCH  40  41
ATOM     41  CG  ASN A   5      -0.113  23.594  33.658  0.00  0.00    +0.222 C 
ATOM     42  OD1 ASN A   5       0.215  22.532  34.156  0.00  0.00    -0.275 OA
ATOM     43  ND2 ASN A   5       0.759  24.556  33.380  0.00  0.00    -0.329 N 
ATOM     44 HD21 ASN A   5       1.769  24.419  33.588  0.00  0.00    +0.145 HD
ATOM     45 HD22 ASN A   5       0.432  25.447  32.955  0.00  0.00    +0.145 HD
ENDBRANCH  40  41
ENDBRANCH   6  40
ENDBRANCH   2   6
ENDBRANCH   1   3
BRANCH   1  46
ATOM     46  C   VAL A   6      -6.696  23.293  33.918  0.00  0.00    +0.241 C 
ATOM     47  O   VAL A   6      -6.584  22.736  35.002  0.00  0.00    -0.273 OA
ATOM     48  N   ILE A   7      -7.426  24.368  33.717  0.00  0.00    -0.297 N 
ATOM     49  H   ILE A   7      -7.364  24.876  32.811  0.00  0.00    +0.150 HD
BRANCH  48  50
ATOM     50  CA  ILE A   7      -8.323  24.850  34.763  0.00  0.00    +0.149 C 
BRANCH  50  51
ATOM     51  C   ILE A   7      -9.729  24.370  34.472  0.00  0.00    +0.241 C 
ATOM     52  N   GLY A   8     -10.255  23.589  35.407  0.00  0.00    -0.295 N 
ATOM     53  H   GLY A   8      -9.726  23.419  36.286  0.00  0.00    +0.150 HD
ATOM     54  O   ILE A   7     -10.287  24.683  33.431  0.00  0.00    -0.273 OA
BRANCH  52  55
ATOM     55  CA  GLY A   8     -11.552  22.969  35.228  0.00  0.00    +0.176 C 
BRANCH  55  56
ATOM     56  C   GLY A   8     -12.598  23.667  36.046  0.00  0.00    +0.243 C 
ATOM     57  O   GLY A   8     -12.363  24.676  36.709  0.00  0.00    -0.273 OA
ATOM     58  N   ARG A   9     -13.800  23.126  35.969  0.00  0.00    -0.297 N 
ATOM     59  H   ARG A   9     -13.919  22.178  35.558  0.00  0.00    +0.150 HD
BRANCH  58  60
ATOM     60  CA  ARG A   9     -14.956  23.857  36.460  0.00  0.00    +0.149 C 
BRANCH  60  61
ATOM     61  C   ARG A   9     -14.991  24.179  37.941  0.00  0.00    +0.241 C 
ATOM     62  N   ASN A  10     -14.328  23.327  38.732  0.00  0.00    -0.298 N 
ATOM     63  H   ASN A  10     -13.956  22.437  38.342  0.00  0.00    +0.150 HD
ATOM     64  O   ARG A   9     -15.551  25.196  38.342  0.00  0.00    -0.273 OA
BRANCH  62  65
ATOM     65  CA  ASN A  10     -14.125  23.649  40.152  0.00  0.00    +0.146 C 
BRANCH  65  66
ATOM     66  C   ASN A  10     -13.485  24.972  40.462  0.00  0.00    +0.227 C 
ATOM     67  O   ASN A  10     -13.727  25.525  41.509  0.00  0.00    -0.286 OA
ENDBRANCH  65  66
BRANCH  65  68
ATOM     68  CB  ASN A  10     -13.344  22.568  40.920  0.00  0.00    +0.112 C 
BRANCH  68  69
ATOM     69  CG  ASN A  10     -11.861  22.549  40.625  0.00  0.00    +0.222 C 
ATOM     70  ND2 ASN A  10     -11.085  22.603  41.690  0.00  0.00    -0.329 N 
ATOM     71 HD21 ASN A  10     -11.507  22.668  42.638  0.00  0.00    +0.145 HD
ATOM     72 HD22 ASN A  10     -10.051  22.581  41.582  0.00  0.00    +0.145 HD
ATOM     73  OD1 ASN A  10     -11.408  22.473  39.497  0.00  0.00    -0.275 OA
ENDBRANCH  68  69
ENDBRANCH  65  68
ENDBRANCH  62  65
ENDBRANCH  60  61
BRANCH  60  74
ATOM     74  CB  ARG A   9     -16.229  23.130  36.110  0.00  0.00    +0.033 C 
BRANCH  74  75
ATOM     75  CG  ARG A   9     -16.479  22.995  34.611  0.00  0.00    +0.045 C 
BRANCH  75  76
ATOM     76  CD  ARG A   9     -17.865  22.396  34.351  0.00  0.00    +0.174 C 
BRANCH  76  77
ATOM     77  NE  ARG A   9     -17.974  21.013  34.813  0.00  0.00    -0.265 N 
ATOM     78  CZ  ARG A   9     -18.607  20.678  35.941  0.00  0.00    +0.342 C 
ATOM     79  NH2 ARG A   9     -19.183  21.578  36.742  0.00  0.00    -0.292 N 
ATOM     80 HH21 ARG A   9     -19.665  21.269  37.610  0.00  0.00    +0.255 HD
ATOM     81 HH22 ARG A   9     -19.150  22.588  36.497  0.00  0.00    +0.255 HD
ATOM     82  NH1 ARG A   9     -18.642  19.401  36.283  0.00  0.00    -0.292 N 
ATOM     83 HH11 ARG A   9     -19.127  19.109  37.155  0.00  0.00    +0.255 HD
ATOM     84 HH12 ARG A   9     -18.184  18.688  35.680  0.00  0.00    +0.255 HD
ATOM     85  HE  ARG A   9     -17.542  20.260  34.241  0.00  0.00    +0.259 HD
ENDBRANCH  76  77
ENDBRANCH  75  76
ENDBRANCH  74  75
ENDBRANCH  60  74
ENDBRANCH  58  60
ENDBRANCH  55  56
ENDBRANCH  52  55
ENDBRANCH  50  51
BRANCH  50  86
ATOM     86  CB  ILE A   7      -8.311  26.392  34.812  0.00  0.00    +0.027 C 
ATOM     87  CG2 ILE A   7      -9.099  26.888  36.023  0.00  0.00    +0.002 C 
BRANCH  86  88
ATOM     88  CG1 ILE A   7      -6.909  27.029  34.815  0.00  0.00    +0.002 C 
ATOM     89  CD1 ILE A   7      -6.103  26.758  36.085  0.00  0.00    +0.000 C 
ENDBRANCH  86  88
ENDBRANCH  50  86
ENDBRANCH  48  50
ENDBRANCH   1  46
BRANCH   1  90
ATOM     90  CB  VAL A   6      -6.782  21.653  32.030  0.00  0.00    +0.027 C 
ATOM     91  CG2 VAL A   6      -6.772  20.376  32.853  0.00  0.00    +0.002 C 
ATOM     92  CG1 VAL A   6      -6.273  21.331  30.627  0.00  0.00    +0.002 C 
ENDBRANCH   1  90
TORSDOF 32
REMARK  Name = ../refined-set-2016/1mes/1mes_pocket.pdb
REMARK  209 active torsions:
REMARK  status: ('A' for Active; 'I' for Inactive)
REMARK    1  A    between atoms: _1  and  _3
REMARK    2  A    between atoms: _3  and  _4
REMARK    3  A    between atoms: _3  and  _6
REMARK    4  A    between atoms: _6  and  _7
REMARK    5  A    between atoms: _7  and  _8
REMARK    6  A    between atoms: _8  and  _9
REMARK    7  A    between atoms: _18  and  _20
REMARK    8  A    between atoms: _20  and  _21
REMARK    9  A    between atoms: _20  and  _23
REMARK   10  A    between atoms: _23  and  _24
REMARK   11  A    between atoms: _27  and  _29
REMARK   12  A    between atoms: _29  and  _30
REMARK   13  A    between atoms: _29  and  _32
REMARK   14  A    between atoms: _32  and  _33
REMARK   15  A    between atoms: _36  and  _38
REMARK   16  A    between atoms: _38  and  _39
REMARK   17  A    between atoms: _38  and  _41
REMARK   18  A    between atoms: _41  and  _42
REMARK   19  A    between atoms: _45  and  _47
REMARK   20  A    between atoms: _47  and  _48
REMARK   21  A    between atoms: _47  and  _50
REMARK   22  A    between atoms: _50  and  _51
REMARK   23  A    between atoms: _54  and  _56
REMARK   24  A    between atoms: _56  and  _57
REMARK   25  A    between atoms: _59  and  _61
REMARK   26  A    between atoms: _61  and  _62
REMARK   27  A    between atoms: _65  and  _67
REMARK   28  A    between atoms: _67  and  _68
REMARK   29  A    between atoms: _67  and  _70
REMARK   30  A    between atoms: _70  and  _71
REMARK   31  A    between atoms: _74  and  _76
REMARK   32  A    between atoms: _76  and  _77
REMARK   33  A    between atoms: _76  and  _79
REMARK   34  A    between atoms: _79  and  _80
REMARK   35  A    between atoms: _83  and  _85
REMARK   36  A    between atoms: _85  and  _86
REMARK   37  A    between atoms: _85  and  _88
REMARK   38  A    between atoms: _88  and  _89
REMARK   39  A    between atoms: _92  and  _94
REMARK   40  A    between atoms: _94  and  _95
REMARK   41  A    between atoms: _94  and  _97
REMARK   42  A    between atoms: _100  and  _102
REMARK   43  A    between atoms: _102  and  _103
REMARK   44  A    between atoms: _102  and  _105
REMARK   45  A    between atoms: _105  and  _106
REMARK   46  A    between atoms: _106  and  _107
REMARK   47  A    between atoms: _107  and  _108
REMARK   48  A    between atoms: _108  and  _109
REMARK   49  A    between atoms: _113  and  _115
REMARK   50  A    between atoms: _115  and  _116
REMARK   51  A    between atoms: _115  and  _118
REMARK   52  A    between atoms: _118  and  _119
REMARK   53  A    between atoms: _122  and  _124
REMARK   54  A    between atoms: _124  and  _125
REMARK   55  A    between atoms: _127  and  _129
REMARK   56  A    between atoms: _129  and  _130
REMARK   57  A    between atoms: _132  and  _134
REMARK   58  A    between atoms: _134  and  _135
REMARK   59  A    between atoms: _134  and  _137
REMARK   60  A    between atoms: _137  and  _138
REMARK   61  A    between atoms: _141  and  _143
REMARK   62  A    between atoms: _143  and  _144
REMARK   63  A    between atoms: _146  and  _148
REMARK   64  A    between atoms: _148  and  _149
REMARK   65  A    between atoms: _151  and  _153
REMARK   66  A    between atoms: _153  and  _154
REMARK   67  A    between atoms: _153  and  _156
REMARK   68  A    between atoms: _156  and  _157
REMARK   69  A    between atoms: _160  and  _162
REMARK   70  A    between atoms: _162  and  _163
REMARK   71  A    between atoms: _162  and  _165
REMARK   72  A    between atoms: _168  and  _170
REMARK   73  A    between atoms: _170  and  _171
REMARK   74  A    between atoms: _170  and  _173
REMARK   75  A    between atoms: _173  and  _174
REMARK   76  A    between atoms: _178  and  _179
REMARK   77  A    between atoms: _184  and  _186
REMARK   78  A    between atoms: _186  and  _187
REMARK   79  A    between atoms: _186  and  _189
REMARK   80  A    between atoms: _189  and  _190
REMARK   81  A    between atoms: _194  and  _195
REMARK   82  A    between atoms: _200  and  _202
REMARK   83  A    between atoms: _202  and  _203
REMARK   84  A    between atoms: _202  and  _205
REMARK   85  A    between atoms: _208  and  _210
REMARK   86  A    between atoms: _210  and  _211
REMARK   87  A    between atoms: _210  and  _213
REMARK   88  A    between atoms: _213  and  _214
REMARK   89  A    between atoms: _219  and  _221
REMARK   90  A    between atoms: _221  and  _222
REMARK   91  A    between atoms: _221  and  _224
REMARK   92  A    between atoms: _227  and  _229
REMARK   93  A    between atoms: _229  and  _230
REMARK   94  A    between atoms: _229  and  _232
REMARK   95  A    between atoms: _232  and  _233
REMARK   96  A    between atoms: _236  and  _238
REMARK   97  A    between atoms: _238  and  _239
REMARK   98  A    between atoms: _241  and  _243
REMARK   99  A    between atoms: _243  and  _244
REMARK  100  A    between atoms: _243  and  _246
REMARK  101  A    between atoms: _246  and  _247
REMARK  102  A    between atoms: _247  and  _248
REMARK  103  A    between atoms: _248  and  _249
REMARK  104  A    between atoms: _258  and  _260
REMARK  105  A    between atoms: _260  and  _261
REMARK  106  A    between atoms: _260  and  _263
REMARK  107  A    between atoms: _263  and  _264
REMARK  108  A    between atoms: _269  and  _271
REMARK  109  A    between atoms: _271  and  _272
REMARK  110  A    between atoms: _271  and  _274
REMARK  111  A    between atoms: _274  and  _275
REMARK  112  A    between atoms: _275  and  _276
REMARK  113  A    between atoms: _276  and  _277
REMARK  114  A    between atoms: _286  and  _288
REMARK  115  A    between atoms: _288  and  _289
REMARK  116  A    between atoms: _288  and  _291
REMARK  117  A    between atoms: _291  and  _292
REMARK  118  A    between atoms: _295  and  _297
REMARK  119  A    between atoms: _297  and  _298
REMARK  120  A    between atoms: _297  and  _300
REMARK  121  A    between atoms: _300  and  _301
REMARK  122  A    between atoms: _304  and  _306
REMARK  123  A    between atoms: _306  and  _307
REMARK  124  A    between atoms: _306  and  _309
REMARK  125  A    between atoms: _309  and  _310
REMARK  126  A    between atoms: _313  and  _315
REMARK  127  A    between atoms: _315  and  _316
REMARK  128  A    between atoms: _315  and  _318
REMARK  129  A    between atoms: _318  and  _319
REMARK  130  A    between atoms: _322  and  _324
REMARK  131  A    between atoms: _324  and  _325
REMARK  132  A    between atoms: _327  and  _329
REMARK  133  A    between atoms: _329  and  _330
REMARK  134  A    between atoms: _333  and  _335
REMARK  135  A    between atoms: _335  and  _336
REMARK  136  A    between atoms: _335  and  _338
REMARK  137  A    between atoms: _338  and  _339
REMARK  138  A    between atoms: _342  and  _344
REMARK  139  A    between atoms: _344  and  _345
REMARK  140  A    between atoms: _344  and  _347
REMARK  141  A    between atoms: _347  and  _348
REMARK  142  A    between atoms: _351  and  _353
REMARK  143  A    between atoms: _353  and  _354
REMARK  144  A    between atoms: _353  and  _356
REMARK  145  A    between atoms: _356  and  _357
REMARK  146  A    between atoms: _360  and  _362
REMARK  147  A    between atoms: _362  and  _363
REMARK  148  A    between atoms: _362  and  _365
REMARK  149  A    between atoms: _368  and  _370
REMARK  150  A    between atoms: _370  and  _371
REMARK  151  A    between atoms: _370  and  _373
REMARK  152  A    between atoms: _373  and  _374
REMARK  153  A    between atoms: _374  and  _375
REMARK  154  A    between atoms: _377  and  _379
REMARK  155  A    between atoms: _379  and  _380
REMARK  156  A    between atoms: _379  and  _382
REMARK  157  A    between atoms: _382  and  _383
REMARK  158  A    between atoms: _386  and  _388
REMARK  159  A    between atoms: _388  and  _389
REMARK  160  A    between atoms: _391  and  _393
REMARK  161  A    between atoms: _393  and  _394
REMARK  162  A    between atoms: _396  and  _398
REMARK  163  A    between atoms: _398  and  _399
REMARK  164  A    between atoms: _398  and  _401
REMARK  165  A    between atoms: _401  and  _402
REMARK  166  A    between atoms: _405  and  _407
REMARK  167  A    between atoms: _407  and  _408
REMARK  168  A    between atoms: _410  and  _412
REMARK  169  A    between atoms: _412  and  _413
REMARK  170  A    between atoms: _415  and  _417
REMARK  171  A    between atoms: _417  and  _418
REMARK  172  A    between atoms: _417  and  _420
REMARK  173  A    between atoms: _420  and  _421
REMARK  174  A    between atoms: _424  and  _426
REMARK  175  A    between atoms: _426  and  _427
REMARK  176  A    between atoms: _426  and  _429
REMARK  177  A    between atoms: _429  and  _430
REMARK  178  A    between atoms: _434  and  _435
REMARK  179  A    between atoms: _440  and  _442
REMARK  180  A    between atoms: _442  and  _443
REMARK  181  A    between atoms: _442  and  _445
REMARK  182  A    between atoms: _445  and  _446
REMARK  183  A    between atoms: _450  and  _451
REMARK  184  A    between atoms: _456  and  _458
REMARK  185  A    between atoms: _458  and  _459
REMARK  186  A    between atoms: _458  and  _461
REMARK  187  A    between atoms: _464  and  _466
REMARK  188  A    between atoms: _466  and  _467
REMARK  189  A    between atoms: _466  and  _469
REMARK  190  A    between atoms: _469  and  _470
REMARK  191  A    between atoms: _475  and  _477
REMARK  192  A    between atoms: _477  and  _478
REMARK  193  A    between atoms: _477  and  _480
REMARK  194  A    between atoms: _483  and  _485
REMARK  195  A    between atoms: _485  and  _486
REMARK  196  A    between atoms: _485  and  _488
REMARK  197  A    between atoms: _488  and  _489
REMARK  198  A    between atoms: _492  and  _494
REMARK  199  A    between atoms: _494  and  _495
REMARK  200  A    between atoms: _497  and  _499
REMARK  201  A    between atoms: _499  and  _500
REMARK  202  A    between atoms: _499  and  _502
REMARK  203  A    between atoms: _502  and  _503
REMARK  204  A    between atoms: _503  and  _504
REMARK  205  A    between atoms: _504  and  _505
REMARK  206  A    between atoms: _514  and  _516
REMARK  207  A    between atoms: _516  and  _517
REMARK  208  A    between atoms: _516  and  _519
REMARK  209  A    between atoms: _519  and  _520
REMARK                            x       y       z     vdW  Elec       q    Type
REMARK                         _______ _______ _______ _____ _____    ______ ____
ROOT
ATOM      1  NE  ARG A   1     -18.590  15.994  32.296  0.00  0.00    -0.265 N 
ATOM      2  CZ  ARG A   1     -18.053  14.779  31.980  0.00  0.00    +0.342 C 
ATOM      3  NH2 ARG A   1     -18.504  13.618  32.466  0.00  0.00    -0.292 N 
ATOM      4 HH21 ARG A   1     -19.309  13.608  33.125  0.00  0.00    +0.255 HD
ATOM      5 HH22 ARG A   1     -18.050  12.725  32.185  0.00  0.00    +0.255 HD
ATOM      6  NH1 ARG A   1     -17.023  14.719  31.139  0.00  0.00    -0.292 N 
ATOM      7 HH11 ARG A   1     -16.607  13.799  30.892  0.00  0.00    +0.255 HD
ATOM      8 HH12 ARG A   1     -16.635  15.592  30.729  0.00  0.00    +0.255 HD
ATOM      9  HE  ARG A   1     -18.180  16.840  31.852  0.00  0.00    +0.259 HD
ENDROOT
BRANCH   1  10
ATOM     10  CD  ARG A   1     -19.718  16.179  33.230  0.00  0.00    +0.174 C 
BRANCH  10  11
ATOM     11  CG  ARG A   1     -19.999  17.666  33.562  0.00  0.00    +0.045 C 
BRANCH  11  12
ATOM     12  CB  ARG A   1     -21.022  18.388  32.670  0.00  0.00    +0.029 C 
BRANCH  12  13
ATOM     13  CA  ARG A   1     -21.226  19.887  33.011  0.00  0.00    +0.133 C 
BRANCH  13  14
ATOM     14  N   ARG A   1     -21.803  20.042  34.356  0.00  0.00    -0.239 NA
ATOM     15  H   ARG A   1     -22.029  19.208  34.935  0.00  0.00    +0.142 HD
ENDBRANCH  13  14
BRANCH  13  16
ATOM     16  C   ARG A   1     -22.088  20.555  31.930  0.00  0.00    +0.224 C 
ATOM     17  O   ARG A   1     -23.302  20.393  31.904  0.00  0.00    -0.287 OA
ENDBRANCH  13  16
ENDBRANCH  12  13
ENDBRANCH  11  12
ENDBRANCH  10  11
ENDBRANCH   1  10
TORSDOF 6
REMARK  Name = ../refined-set-2016/1mes/1mes_pocket.pdb
REMARK  209 active torsions:
REMARK  status: ('A' for Active; 'I' for Inactive)
REMARK    1  A    between atoms: _1  and  _3
REMARK    2  A    between atoms: _3  and  _4
REMARK    3  A    between atoms: _3  and  _6
REMARK    4  A    between atoms: _6  and  _7
REMARK    5  A    between atoms: _7  and  _8
REMARK    6  A    between atoms: _8  and  _9
REMARK    7  A    between atoms: _18  and  _20
REMARK    8  A    between atoms: _20  and  _21
REMARK    9  A    between atoms: _20  and  _23
REMARK   10  A    between atoms: _23  and  _24
REMARK   11  A    between atoms: _27  and  _29
REMARK   12  A    between atoms: _29  and  _30
REMARK   13  A    between atoms: _29  and  _32
REMARK   14  A    between atoms: _32  and  _33
REMARK   15  A    between atoms: _36  and  _38
REMARK   16  A    between atoms: _38  and  _39
REMARK   17  A    between atoms: _38  and  _41
REMARK   18  A    between atoms: _41  and  _42
REMARK   19  A    between atoms: _45  and  _47
REMARK   20  A    between atoms: _47  and  _48
REMARK   21  A    between atoms: _47  and  _50
REMARK   22  A    between atoms: _50  and  _51
REMARK   23  A    between atoms: _54  and  _56
REMARK   24  A    between atoms: _56  and  _57
REMARK   25  A    between atoms: _59  and  _61
REMARK   26  A    between atoms: _61  and  _62
REMARK   27  A    between atoms: _65  and  _67
REMARK   28  A    between atoms: _67  and  _68
REMARK   29  A    between atoms: _67  and  _70
REMARK   30  A    between atoms: _70  and  _71
REMARK   31  A    between atoms: _74  and  _76
REMARK   32  A    between atoms: _76  and  _77
REMARK   33  A    between atoms: _76  and  _79
REMARK   34  A    between atoms: _79  and  _80
REMARK   35  A    between atoms: _83  and  _85
REMARK   36  A    between atoms: _85  and  _86
REMARK   37  A    between atoms: _85  and  _88
REMARK   38  A    between atoms: _88  and  _89
REMARK   39  A    between atoms: _92  and  _94
REMARK   40  A    between atoms: _94  and  _95
REMARK   41  A    between atoms: _94  and  _97
REMARK   42  A    between atoms: _100  and  _102
REMARK   43  A    between atoms: _102  and  _103
REMARK   44  A    between atoms: _102  and  _105
REMARK   45  A    between atoms: _105  and  _106
REMARK   46  A    between atoms: _106  and  _107
REMARK   47  A    between atoms: _107  and  _108
REMARK   48  A    between atoms: _108  and  _109
REMARK   49  A    between atoms: _113  and  _115
REMARK   50  A    between atoms: _115  and  _116
REMARK   51  A    between atoms: _115  and  _118
REMARK   52  A    between atoms: _118  and  _119
REMARK   53  A    between atoms: _122  and  _124
REMARK   54  A    between atoms: _124  and  _125
REMARK   55  A    between atoms: _127  and  _129
REMARK   56  A    between atoms: _129  and  _130
REMARK   57  A    between atoms: _132  and  _134
REMARK   58  A    between atoms: _134  and  _135
REMARK   59  A    between atoms: _134  and  _137
REMARK   60  A    between atoms: _137  and  _138
REMARK   61  A    between atoms: _141  and  _143
REMARK   62  A    between atoms: _143  and  _144
REMARK   63  A    between atoms: _146  and  _148
REMARK   64  A    between atoms: _148  and  _149
REMARK   65  A    between atoms: _151  and  _153
REMARK   66  A    between atoms: _153  and  _154
REMARK   67  A    between atoms: _153  and  _156
REMARK   68  A    between atoms: _156  and  _157
REMARK   69  A    between atoms: _160  and  _162
REMARK   70  A    between atoms: _162  and  _163
REMARK   71  A    between atoms: _162  and  _165
REMARK   72  A    between atoms: _168  and  _170
REMARK   73  A    between atoms: _170  and  _171
REMARK   74  A    between atoms: _170  and  _173
REMARK   75  A    between atoms: _173  and  _174
REMARK   76  A    between atoms: _178  and  _179
REMARK   77  A    between atoms: _184  and  _186
REMARK   78  A    between atoms: _186  and  _187
REMARK   79  A    between atoms: _186  and  _189
REMARK   80  A    between atoms: _189  and  _190
REMARK   81  A    between atoms: _194  and  _195
REMARK   82  A    between atoms: _200  and  _202
REMARK   83  A    between atoms: _202  and  _203
REMARK   84  A    between atoms: _202  and  _205
REMARK   85  A    between atoms: _208  and  _210
REMARK   86  A    between atoms: _210  and  _211
REMARK   87  A    between atoms: _210  and  _213
REMARK   88  A    between atoms: _213  and  _214
REMARK   89  A    between atoms: _219  and  _221
REMARK   90  A    between atoms: _221  and  _222
REMARK   91  A    between atoms: _221  and  _224
REMARK   92  A    between atoms: _227  and  _229
REMARK   93  A    between atoms: _229  and  _230
REMARK   94  A    between atoms: _229  and  _232
REMARK   95  A    between atoms: _232  and  _233
REMARK   96  A    between atoms: _236  and  _238
REMARK   97  A    between atoms: _238  and  _239
REMARK   98  A    between atoms: _241  and  _243
REMARK   99  A    between atoms: _243  and  _244
REMARK  100  A    between atoms: _243  and  _246
REMARK  101  A    between atoms: _246  and  _247
REMARK  102  A    between atoms: _247  and  _248
REMARK  103  A    between atoms: _248  and  _249
REMARK  104  A    between atoms: _258  and  _260
REMARK  105  A    between atoms: _260  and  _261
REMARK  106  A    between atoms: _260  and  _263
REMARK  107  A    between atoms: _263  and  _264
REMARK  108  A    between atoms: _269  and  _271
REMARK  109  A    between atoms: _271  and  _272
REMARK  110  A    between atoms: _271  and  _274
REMARK  111  A    between atoms: _274  and  _275
REMARK  112  A    between atoms: _275  and  _276
REMARK  113  A    between atoms: _276  and  _277
REMARK  114  A    between atoms: _286  and  _288
REMARK  115  A    between atoms: _288  and  _289
REMARK  116  A    between atoms: _288  and  _291
REMARK  117  A    between atoms: _291  and  _292
REMARK  118  A    between atoms: _295  and  _297
REMARK  119  A    between atoms: _297  and  _298
REMARK  120  A    between atoms: _297  and  _300
REMARK  121  A    between atoms: _300  and  _301
REMARK  122  A    between atoms: _304  and  _306
REMARK  123  A    between atoms: _306  and  _307
REMARK  124  A    between atoms: _306  and  _309
REMARK  125  A    between atoms: _309  and  _310
REMARK  126  A    between atoms: _313  and  _315
REMARK  127  A    between atoms: _315  and  _316
REMARK  128  A    between atoms: _315  and  _318
REMARK  129  A    between atoms: _318  and  _319
REMARK  130  A    between atoms: _322  and  _324
REMARK  131  A    between atoms: _324  and  _325
REMARK  132  A    between atoms: _327  and  _329
REMARK  133  A    between atoms: _329  and  _330
REMARK  134  A    between atoms: _333  and  _335
REMARK  135  A    between atoms: _335  and  _336
REMARK  136  A    between atoms: _335  and  _338
REMARK  137  A    between atoms: _338  and  _339
REMARK  138  A    between atoms: _342  and  _344
REMARK  139  A    between atoms: _344  and  _345
REMARK  140  A    between atoms: _344  and  _347
REMARK  141  A    between atoms: _347  and  _348
REMARK  142  A    between atoms: _351  and  _353
REMARK  143  A    between atoms: _353  and  _354
REMARK  144  A    between atoms: _353  and  _356
REMARK  145  A    between atoms: _356  and  _357
REMARK  146  A    between atoms: _360  and  _362
REMARK  147  A    between atoms: _362  and  _363
REMARK  148  A    between atoms: _362  and  _365
REMARK  149  A    between atoms: _368  and  _370
REMARK  150  A    between atoms: _370  and  _371
REMARK  151  A    between atoms: _370  and  _373
REMARK  152  A    between atoms: _373  and  _374
REMARK  153  A    between atoms: _374  and  _375
REMARK  154  A    between atoms: _377  and  _379
REMARK  155  A    between atoms: _379  and  _380
REMARK  156  A    between atoms: _379  and  _382
REMARK  157  A    between atoms: _382  and  _383
REMARK  158  A    between atoms: _386  and  _388
REMARK  159  A    between atoms: _388  and  _389
REMARK  160  A    between atoms: _391  and  _393
REMARK  161  A    between atoms: _393  and  _394
REMARK  162  A    between atoms: _396  and  _398
REMARK  163  A    between atoms: _398  and  _399
REMARK  164  A    between atoms: _398  and  _401
REMARK  165  A    between atoms: _401  and  _402
REMARK  166  A    between atoms: _405  and  _407
REMARK  167  A    between atoms: _407  and  _408
REMARK  168  A    between atoms: _410  and  _412
REMARK  169  A    between atoms: _412  and  _413
REMARK  170  A    between atoms: _415  and  _417
REMARK  171  A    between atoms: _417  and  _418
REMARK  172  A    between atoms: _417  and  _420
REMARK  173  A    between atoms: _420  and  _421
REMARK  174  A    between atoms: _424  and  _426
REMARK  175  A    between atoms: _426  and  _427
REMARK  176  A    between atoms: _426  and  _429
REMARK  177  A    between atoms: _429  and  _430
REMARK  178  A    between atoms: _434  and  _435
REMARK  179  A    between atoms: _440  and  _442
REMARK  180  A    between atoms: _442  and  _443
REMARK  181  A    between atoms: _442  and  _445
REMARK  182  A    between atoms: _445  and  _446
REMARK  183  A    between atoms: _450  and  _451
REMARK  184  A    between atoms: _456  and  _458
REMARK  185  A    between atoms: _458  and  _459
REMARK  186  A    between atoms: _458  and  _461
REMARK  187  A    between atoms: _464  and  _466
REMARK  188  A    between atoms: _466  and  _467
REMARK  189  A    between atoms: _466  and  _469
REMARK  190  A    between atoms: _469  and  _470
REMARK  191  A    between atoms: _475  and  _477
REMARK  192  A    between atoms: _477  and  _478
REMARK  193  A    between atoms: _477  and  _480
REMARK  194  A    between atoms: _483  and  _485
REMARK  195  A    between atoms: _485  and  _486
REMARK  196  A    between atoms: _485  and  _488
REMARK  197  A    between atoms: _488  and  _489
REMARK  198  A    between atoms: _492  and  _494
REMARK  199  A    between atoms: _494  and  _495
REMARK  200  A    between atoms: _497  and  _499
REMARK  201  A    between atoms: _499  and  _500
REMARK  202  A    between atoms: _499  and  _502
REMARK  203  A    between atoms: _502  and  _503
REMARK  204  A    between atoms: _503  and  _504
REMARK  205  A    between atoms: _504  and  _505
REMARK  206  A    between atoms: _514  and  _516
REMARK  207  A    between atoms: _516  and  _517
REMARK  208  A    between atoms: _516  and  _519
REMARK  209  A    between atoms: _519  and  _520
REMARK                            x       y       z     vdW  Elec       q    Type
REMARK                         _______ _______ _______ _____ _____    ______ ____
ROOT
ATOM      1  C   GLY A   5      -9.544  22.026  24.823  0.00  0.00    +0.243 C 
ATOM      2  O   GLY A   5      -8.406  21.667  24.599  0.00  0.00    -0.273 OA
ATOM      3  N   ALA A   6     -10.561  21.663  24.040  0.00  0.00    -0.297 N 
ATOM      4  H   ALA A   6     -11.508  22.054  24.217  0.00  0.00    +0.150 HD
ENDROOT
BRANCH   3   5
ATOM      5  CA  ALA A   6     -10.366  20.730  22.943  0.00  0.00    +0.149 C 
ATOM      6  CB  ALA A   6     -11.545  19.776  22.843  0.00  0.00    +0.031 C 
BRANCH   5   7
ATOM      7  C   ALA A   6     -10.316  21.481  21.650  0.00  0.00    +0.241 C 
ATOM      8  O   ALA A   6     -11.173  22.296  21.353  0.00  0.00    -0.273 OA
ATOM      9  N   ASP A   7      -9.290  21.190  20.857  0.00  0.00    -0.297 N 
ATOM     10  H   ASP A   7      -8.580  20.482  21.133  0.00  0.00    +0.150 HD
BRANCH   9  11
ATOM     11  CA  ASP A   7      -9.195  21.903  19.578  0.00  0.00    +0.160 C 
BRANCH  11  12
ATOM     12  C   ASP A   7     -10.246  21.466  18.577  0.00  0.00    +0.241 C 
ATOM     13  N   ASP A   8     -10.491  20.176  18.619  0.00  0.00    -0.297 N 
ATOM     14  H   ASP A   8     -10.037  19.606  19.361  0.00  0.00    +0.150 HD
ATOM     15  O   ASP A   7     -10.826  22.238  17.835  0.00  0.00    -0.273 OA
BRANCH  13  16
ATOM     16  CA  ASP A   8     -11.374  19.510  17.667  0.00  0.00    +0.160 C 
BRANCH  16  17
ATOM     17  C   ASP A   8     -12.490  18.829  18.392  0.00  0.00    +0.241 C 
ATOM     18  O   ASP A   8     -12.428  18.674  19.598  0.00  0.00    -0.273 OA
ATOM     19  N   THR A   9     -13.465  18.384  17.621  0.00  0.00    -0.295 N 
ATOM     20  H   THR A   9     -13.431  18.614  16.607  0.00  0.00    +0.150 HD
BRANCH  19  21
ATOM     21  CA  THR A   9     -14.589  17.588  18.108  0.00  0.00    +0.176 C 
BRANCH  21  22
ATOM     22  C   THR A   9     -14.330  16.106  17.947  0.00  0.00    +0.243 C 
ATOM     23  N   VAL A  10     -14.687  15.375  18.987  0.00  0.00    -0.298 N 
ATOM     24  H   VAL A  10     -15.191  15.831  19.775  0.00  0.00    +0.150 HD
ATOM     25  O   THR A   9     -13.809  15.639  16.942  0.00  0.00    -0.273 OA
BRANCH  23  26
ATOM     26  CA  VAL A  10     -14.396  13.946  19.065  0.00  0.00    +0.137 C 
BRANCH  26  27
ATOM     27  CB  VAL A  10     -13.211  13.691  20.019  0.00  0.00    +0.026 C 
ATOM     28  CG2 VAL A  10     -12.744  12.226  19.965  0.00  0.00    +0.002 C 
ATOM     29  CG1 VAL A  10     -12.064  14.659  19.725  0.00  0.00    +0.002 C 
ENDBRANCH  26  27
BRANCH  26  30
ATOM     30  C   VAL A  10     -15.614  13.227  19.610  0.00  0.00    +0.227 C 
ATOM     31  O   VAL A  10     -16.094  13.550  20.686  0.00  0.00    -0.286 OA
ENDBRANCH  26  30
ENDBRANCH  23  26
ENDBRANCH  21  22
BRANCH  21  32
ATOM     32  CB  THR A   9     -15.802  18.048  17.280  0.00  0.00    +0.137 C 
ATOM     33  CG2 THR A   9     -17.090  17.252  17.535  0.00  0.00    +0.034 C 
BRANCH  32  34
ATOM     34  OG1 THR A   9     -16.030  19.432  17.581  0.00  0.00    -0.382 OA
ATOM     35  HG1 THR A   9     -15.227  19.958  17.340  0.00  0.00    +0.210 HD
ENDBRANCH  32  34
ENDBRANCH  21  32
ENDBRANCH  19  21
ENDBRANCH  16  17
BRANCH  16  36
ATOM     36  CB  ASP A   8     -10.545  18.436  16.975  0.00  0.00    +0.143 C 
BRANCH  36  37
ATOM     37  CG  ASP A   8      -9.752  19.061  15.860  0.00  0.00    +0.367 C 
ATOM     38  OD2 ASP A   8      -8.543  18.858  15.808  0.00  0.00    -0.246 OA
ATOM     39  OD1 ASP A   8     -10.354  19.755  15.041  0.00  0.00    -0.246 OA
ENDBRANCH  36  37
ENDBRANCH  16  36
ENDBRANCH  13  16
ENDBRANCH  11  12
BRANCH  11  40
ATOM     40  CB  ASP A   7      -7.810  21.704  18.960  0.00  0.00    +0.143 C 
BRANCH  40  41
ATOM     41  CG  ASP A   7      -6.711  22.130  19.901  0.00  0.00    +0.367 C 
ATOM     42  OD2 ASP A   7      -6.842  23.153  20.571  0.00  0.00    -0.246 OA
ATOM     43  OD1 ASP A   7      -5.708  21.426  19.967  0.00  0.00    -0.246 OA
ENDBRANCH  40  41
ENDBRANCH  11  40
ENDBRANCH   9  11
ENDBRANCH   5   7
ENDBRANCH   3   5
BRANCH   1  44
ATOM     44  CA  GLY A   5      -9.890  22.837  26.066  0.00  0.00    +0.176 C 
BRANCH  44  46
ATOM     45  C   THR A   4     -11.583  24.341  25.361  0.00  0.00    +0.243 C 
ATOM     46  N   GLY A   5     -11.282  23.285  26.115  0.00  0.00    -0.295 N 
ATOM     47  H   GLY A   5     -11.994  22.807  26.704  0.00  0.00    +0.150 HD
ATOM     48  O   THR A   4     -10.736  24.878  24.681  0.00  0.00    -0.273 OA
BRANCH  45  49
ATOM     49  CA  THR A   4     -13.049  24.825  25.393  0.00  0.00    +0.176 C 
BRANCH  49  51
ATOM     50  C   ASP A   3     -14.266  22.766  25.111  0.00  0.00    +0.241 C 
ATOM     51  N   THR A   4     -14.022  23.841  25.864  0.00  0.00    -0.295 N 
ATOM     52  H   THR A   4     -14.515  23.976  26.770  0.00  0.00    +0.150 HD
ATOM     53  O   ASP A   3     -13.667  22.549  24.078  0.00  0.00    -0.273 OA
BRANCH  50  54
ATOM     54  CA  ASP A   3     -15.268  21.775  25.655  0.00  0.00    +0.160 C 
BRANCH  54  57
ATOM     55  C   LEU A   2     -17.611  22.007  25.856  0.00  0.00    +0.241 C 
ATOM     56  O   LEU A   2     -17.501  22.187  27.065  0.00  0.00    -0.273 OA
ATOM     57  N   ASP A   3     -16.576  21.922  25.030  0.00  0.00    -0.297 N 
ATOM     58  H   ASP A   3     -16.692  21.958  23.997  0.00  0.00    +0.150 HD
BRANCH  55  59
ATOM     59  CA  LEU A   2     -18.984  21.859  25.257  0.00  0.00    +0.149 C 
BRANCH  59  61
ATOM     60  C   LEU A   1     -19.303  19.512  25.450  0.00  0.00    +0.238 C 
ATOM     61  N   LEU A   2     -19.652  20.705  25.860  0.00  0.00    -0.297 N 
ATOM     62  H   LEU A   2     -20.381  20.829  26.591  0.00  0.00    +0.150 HD
ATOM     63  O   LEU A   1     -18.521  19.347  24.523  0.00  0.00    -0.274 OA
BRANCH  60  64
ATOM     64  CA  LEU A   1     -19.934  18.370  26.201  0.00  0.00    +0.145 C 
BRANCH  64  65
ATOM     65  N   LEU A   1     -20.505  17.423  25.260  0.00  0.00    -0.238 NA
ATOM     66  H   LEU A   1     -19.888  16.708  24.824  0.00  0.00    +0.142 HD
ENDBRANCH  64  65
BRANCH  64  67
ATOM     67  CB  LEU A   1     -18.874  17.561  26.956  0.00  0.00    +0.026 C 
BRANCH  67  68
ATOM     68  CG  LEU A   1     -18.181  18.186  28.169  0.00  0.00    +0.002 C 
ATOM     69  CD2 LEU A   1     -19.164  18.338  29.331  0.00  0.00    +0.000 C 
ATOM     70  CD1 LEU A   1     -16.989  17.321  28.572  0.00  0.00    +0.000 C 
ENDBRANCH  67  68
ENDBRANCH  64  67
ENDBRANCH  60  64
ENDBRANCH  59  61
BRANCH  59  71
ATOM     71  CB  LEU A   2     -19.772  23.122  25.597  0.00  0.00    +0.029 C 
BRANCH  71  72
ATOM     72  CG  LEU A   2     -21.206  23.099  25.090  0.00  0.00    +0.002 C 
ATOM     73  CD2 LEU A   2     -21.861  24.450  25.384  0.00  0.00    +0.000 C 
ATOM     74  CD1 LEU A   2     -21.231  22.780  23.590  0.00  0.00    +0.000 C 
ENDBRANCH  71  72
ENDBRANCH  59  71
ENDBRANCH  55  59
ENDBRANCH  54  57
BRANCH  54  75
ATOM     75  CB  ASP A   3     -14.824  20.322  25.417  0.00  0.00    +0.143 C 
BRANCH  75  76
ATOM     76  CG  ASP A   3     -13.540  19.934  26.110  0.00  0.00    +0.367 C 
ATOM     77  OD2 ASP A   3     -12.758  20.785  26.531  0.00  0.00    -0.246 OA
ATOM     78  OD1 ASP A   3     -13.314  18.745  26.220  0.00  0.00    -0.246 OA
ENDBRANCH  75  76
ENDBRANCH  54  75
ENDBRANCH  50  54
ENDBRANCH  49  51
BRANCH  49  79
ATOM     79  CB  THR A   4     -13.223  26.128  26.213  0.00  0.00    +0.137 C 
ATOM     80  CG2 THR A   4     -14.630  26.716  26.060  0.00  0.00    +0.034 C 
BRANCH  79  81
ATOM     81  OG1 THR A   4     -13.010  25.890  27.610  0.00  0.00    -0.382 OA
ATOM     82  HG1 THR A   4     -12.091  25.548  27.749  0.00  0.00    +0.210 HD
ENDBRANCH  79  81
ENDBRANCH  49  79
ENDBRANCH  45  49
ENDBRANCH  44  46
ENDBRANCH   1  44
TORSDOF 35
REMARK  Name = ../refined-set-2016/1mes/1mes_pocket.pdb
REMARK  209 active torsions:
REMARK  status: ('A' for Active; 'I' for Inactive)
REMARK    1  A    between atoms: _1  and  _3
REMARK    2  A    between atoms: _3  and  _4
REMARK    3  A    between atoms: _3  and  _6
REMARK    4  A    between atoms: _6  and  _7
REMARK    5  A    between atoms: _7  and  _8
REMARK    6  A    between atoms: _8  and  _9
REMARK    7  A    between atoms: _18  and  _20
REMARK    8  A    between atoms: _20  and  _21
REMARK    9  A    between atoms: _20  and  _23
REMARK   10  A    between atoms: _23  and  _24
REMARK   11  A    between atoms: _27  and  _29
REMARK   12  A    between atoms: _29  and  _30
REMARK   13  A    between atoms: _29  and  _32
REMARK   14  A    between atoms: _32  and  _33
REMARK   15  A    between atoms: _36  and  _38
REMARK   16  A    between atoms: _38  and  _39
REMARK   17  A    between atoms: _38  and  _41
REMARK   18  A    between atoms: _41  and  _42
REMARK   19  A    between atoms: _45  and  _47
REMARK   20  A    between atoms: _47  and  _48
REMARK   21  A    between atoms: _47  and  _50
REMARK   22  A    between atoms: _50  and  _51
REMARK   23  A    between atoms: _54  and  _56
REMARK   24  A    between atoms: _56  and  _57
REMARK   25  A    between atoms: _59  and  _61
REMARK   26  A    between atoms: _61  and  _62
REMARK   27  A    between atoms: _65  and  _67
REMARK   28  A    between atoms: _67  and  _68
REMARK   29  A    between atoms: _67  and  _70
REMARK   30  A    between atoms: _70  and  _71
REMARK   31  A    between atoms: _74  and  _76
REMARK   32  A    between atoms: _76  and  _77
REMARK   33  A    between atoms: _76  and  _79
REMARK   34  A    between atoms: _79  and  _80
REMARK   35  A    between atoms: _83  and  _85
REMARK   36  A    between atoms: _85  and  _86
REMARK   37  A    between atoms: _85  and  _88
REMARK   38  A    between atoms: _88  and  _89
REMARK   39  A    between atoms: _92  and  _94
REMARK   40  A    between atoms: _94  and  _95
REMARK   41  A    between atoms: _94  and  _97
REMARK   42  A    between atoms: _100  and  _102
REMARK   43  A    between atoms: _102  and  _103
REMARK   44  A    between atoms: _102  and  _105
REMARK   45  A    between atoms: _105  and  _106
REMARK   46  A    between atoms: _106  and  _107
REMARK   47  A    between atoms: _107  and  _108
REMARK   48  A    between atoms: _108  and  _109
REMARK   49  A    between atoms: _113  and  _115
REMARK   50  A    between atoms: _115  and  _116
REMARK   51  A    between atoms: _115  and  _118
REMARK   52  A    between atoms: _118  and  _119
REMARK   53  A    between atoms: _122  and  _124
REMARK   54  A    between atoms: _124  and  _125
REMARK   55  A    between atoms: _127  and  _129
REMARK   56  A    between atoms: _129  and  _130
REMARK   57  A    between atoms: _132  and  _134
REMARK   58  A    between atoms: _134  and  _135
REMARK   59  A    between atoms: _134  and  _137
REMARK   60  A    between atoms: _137  and  _138
REMARK   61  A    between atoms: _141  and  _143
REMARK   62  A    between atoms: _143  and  _144
REMARK   63  A    between atoms: _146  and  _148
REMARK   64  A    between atoms: _148  and  _149
REMARK   65  A    between atoms: _151  and  _153
REMARK   66  A    between atoms: _153  and  _154
REMARK   67  A    between atoms: _153  and  _156
REMARK   68  A    between atoms: _156  and  _157
REMARK   69  A    between atoms: _160  and  _162
REMARK   70  A    between atoms: _162  and  _163
REMARK   71  A    between atoms: _162  and  _165
REMARK   72  A    between atoms: _168  and  _170
REMARK   73  A    between atoms: _170  and  _171
REMARK   74  A    between atoms: _170  and  _173
REMARK   75  A    between atoms: _173  and  _174
REMARK   76  A    between atoms: _178  and  _179
REMARK   77  A    between atoms: _184  and  _186
REMARK   78  A    between atoms: _186  and  _187
REMARK   79  A    between atoms: _186  and  _189
REMARK   80  A    between atoms: _189  and  _190
REMARK   81  A    between atoms: _194  and  _195
REMARK   82  A    between atoms: _200  and  _202
REMARK   83  A    between atoms: _202  and  _203
REMARK   84  A    between atoms: _202  and  _205
REMARK   85  A    between atoms: _208  and  _210
REMARK   86  A    between atoms: _210  and  _211
REMARK   87  A    between atoms: _210  and  _213
REMARK   88  A    between atoms: _213  and  _214
REMARK   89  A    between atoms: _219  and  _221
REMARK   90  A    between atoms: _221  and  _222
REMARK   91  A    between atoms: _221  and  _224
REMARK   92  A    between atoms: _227  and  _229
REMARK   93  A    between atoms: _229  and  _230
REMARK   94  A    between atoms: _229  and  _232
REMARK   95  A    between atoms: _232  and  _233
REMARK   96  A    between atoms: _236  and  _238
REMARK   97  A    between atoms: _238  and  _239
REMARK   98  A    between atoms: _241  and  _243
REMARK   99  A    between atoms: _243  and  _244
REMARK  100  A    between atoms: _243  and  _246
REMARK  101  A    between atoms: _246  and  _247
REMARK  102  A    between atoms: _247  and  _248
REMARK  103  A    between atoms: _248  and  _249
REMARK  104  A    between atoms: _258  and  _260
REMARK  105  A    between atoms: _260  and  _261
REMARK  106  A    between atoms: _260  and  _263
REMARK  107  A    between atoms: _263  and  _264
REMARK  108  A    between atoms: _269  and  _271
REMARK  109  A    between atoms: _271  and  _272
REMARK  110  A    between atoms: _271  and  _274
REMARK  111  A    between atoms: _274  and  _275
REMARK  112  A    between atoms: _275  and  _276
REMARK  113  A    between atoms: _276  and  _277
REMARK  114  A    between atoms: _286  and  _288
REMARK  115  A    between atoms: _288  and  _289
REMARK  116  A    between atoms: _288  and  _291
REMARK  117  A    between atoms: _291  and  _292
REMARK  118  A    between atoms: _295  and  _297
REMARK  119  A    between atoms: _297  and  _298
REMARK  120  A    between atoms: _297  and  _300
REMARK  121  A    between atoms: _300  and  _301
REMARK  122  A    between atoms: _304  and  _306
REMARK  123  A    between atoms: _306  and  _307
REMARK  124  A    between atoms: _306  and  _309
REMARK  125  A    between atoms: _309  and  _310
REMARK  126  A    between atoms: _313  and  _315
REMARK  127  A    between atoms: _315  and  _316
REMARK  128  A    between atoms: _315  and  _318
REMARK  129  A    between atoms: _318  and  _319
REMARK  130  A    between atoms: _322  and  _324
REMARK  131  A    between atoms: _324  and  _325
REMARK  132  A    between atoms: _327  and  _329
REMARK  133  A    between atoms: _329  and  _330
REMARK  134  A    between atoms: _333  and  _335
REMARK  135  A    between atoms: _335  and  _336
REMARK  136  A    between atoms: _335  and  _338
REMARK  137  A    between atoms: _338  and  _339
REMARK  138  A    between atoms: _342  and  _344
REMARK  139  A    between atoms: _344  and  _345
REMARK  140  A    between atoms: _344  and  _347
REMARK  141  A    between atoms: _347  and  _348
REMARK  142  A    between atoms: _351  and  _353
REMARK  143  A    between atoms: _353  and  _354
REMARK  144  A    between atoms: _353  and  _356
REMARK  145  A    between atoms: _356  and  _357
REMARK  146  A    between atoms: _360  and  _362
REMARK  147  A    between atoms: _362  and  _363
REMARK  148  A    between atoms: _362  and  _365
REMARK  149  A    between atoms: _368  and  _370
REMARK  150  A    between atoms: _370  and  _371
REMARK  151  A    between atoms: _370  and  _373
REMARK  152  A    between atoms: _373  and  _374
REMARK  153  A    between atoms: _374  and  _375
REMARK  154  A    between atoms: _377  and  _379
REMARK  155  A    between atoms: _379  and  _380
REMARK  156  A    between atoms: _379  and  _382
REMARK  157  A    between atoms: _382  and  _383
REMARK  158  A    between atoms: _386  and  _388
REMARK  159  A    between atoms: _388  and  _389
REMARK  160  A    between atoms: _391  and  _393
REMARK  161  A    between atoms: _393  and  _394
REMARK  162  A    between atoms: _396  and  _398
REMARK  163  A    between atoms: _398  and  _399
REMARK  164  A    between atoms: _398  and  _401
REMARK  165  A    between atoms: _401  and  _402
REMARK  166  A    between atoms: _405  and  _407
REMARK  167  A    between atoms: _407  and  _408
REMARK  168  A    between atoms: _410  and  _412
REMARK  169  A    between atoms: _412  and  _413
REMARK  170  A    between atoms: _415  and  _417
REMARK  171  A    between atoms: _417  and  _418
REMARK  172  A    between atoms: _417  and  _420
REMARK  173  A    between atoms: _420  and  _421
REMARK  174  A    between atoms: _424  and  _426
REMARK  175  A    between atoms: _426  and  _427
REMARK  176  A    between atoms: _426  and  _429
REMARK  177  A    between atoms: _429  and  _430
REMARK  178  A    between atoms: _434  and  _435
REMARK  179  A    between atoms: _440  and  _442
REMARK  180  A    between atoms: _442  and  _443
REMARK  181  A    between atoms: _442  and  _445
REMARK  182  A    between atoms: _445  and  _446
REMARK  183  A    between atoms: _450  and  _451
REMARK  184  A    between atoms: _456  and  _458
REMARK  185  A    between atoms: _458  and  _459
REMARK  186  A    between atoms: _458  and  _461
REMARK  187  A    between atoms: _464  and  _466
REMARK  188  A    between atoms: _466  and  _467
REMARK  189  A    between atoms: _466  and  _469
REMARK  190  A    between atoms: _469  and  _470
REMARK  191  A    between atoms: _475  and  _477
REMARK  192  A    between atoms: _477  and  _478
REMARK  193  A    between atoms: _477  and  _480
REMARK  194  A    between atoms: _483  and  _485
REMARK  195  A    between atoms: _485  and  _486
REMARK  196  A    between atoms: _485  and  _488
REMARK  197  A    between atoms: _488  and  _489
REMARK  198  A    between atoms: _492  and  _494
REMARK  199  A    between atoms: _494  and  _495
REMARK  200  A    between atoms: _497  and  _499
REMARK  201  A    between atoms: _499  and  _500
REMARK  202  A    between atoms: _499  and  _502
REMARK  203  A    between atoms: _502  and  _503
REMARK  204  A    between atoms: _503  and  _504
REMARK  205  A    between atoms: _504  and  _505
REMARK  206  A    between atoms: _514  and  _516
REMARK  207  A    between atoms: _516  and  _517
REMARK  208  A    between atoms: _516  and  _519
REMARK  209  A    between atoms: _519  and  _520
REMARK                            x       y       z     vdW  Elec       q    Type
REMARK                         _______ _______ _______ _____ _____    ______ ____
ROOT
ATOM      1  C   GLY A   3      -4.226  13.473  23.468  0.00  0.00    +0.243 C 
ATOM      2  N   GLY A   4      -4.449  12.835  24.606  0.00  0.00    -0.295 N 
ATOM      3  H   GLY A   4      -4.175  11.836  24.704  0.00  0.00    +0.150 HD
ATOM      4  O   GLY A   3      -4.664  14.583  23.212  0.00  0.00    -0.273 OA
ENDROOT
BRANCH   2   5
ATOM      5  CA  GLY A   4      -5.077  13.529  25.721  0.00  0.00    +0.176 C 
BRANCH   5   6
ATOM      6  C   GLY A   4      -4.378  13.203  27.016  0.00  0.00    +0.243 C 
ATOM      7  N   ILE A   5      -5.056  13.504  28.108  0.00  0.00    -0.297 N 
ATOM      8  H   ILE A   5      -5.903  14.107  28.069  0.00  0.00    +0.150 HD
ATOM      9  O   GLY A   4      -3.283  12.669  27.077  0.00  0.00    -0.273 OA
BRANCH   7  10
ATOM     10  CA  ILE A   5      -4.569  12.955  29.378  0.00  0.00    +0.149 C 
BRANCH  10  11
ATOM     11  C   ILE A   5      -4.747  11.445  29.344  0.00  0.00    +0.241 C 
ATOM     12  N   GLY A   6      -3.733  10.720  29.729  0.00  0.00    -0.295 N 
ATOM     13  H   GLY A   6      -2.847  11.126  30.091  0.00  0.00    +0.150 HD
ATOM     14  O   ILE A   5      -5.788  10.937  28.979  0.00  0.00    -0.273 OA
BRANCH  12  15
ATOM     15  CA  GLY A   6      -3.962   9.290  29.603  0.00  0.00    +0.176 C 
BRANCH  15  16
ATOM     16  C   GLY A   6      -3.205   8.715  28.442  0.00  0.00    +0.243 C 
ATOM     17  O   GLY A   6      -2.668   7.628  28.530  0.00  0.00    -0.273 OA
ATOM     18  N   GLY A   7      -3.112   9.460  27.362  0.00  0.00    -0.296 N 
ATOM     19  H   GLY A   7      -3.542  10.405  27.301  0.00  0.00    +0.150 HD
BRANCH  18  20
ATOM     20  CA  GLY A   7      -2.367   8.874  26.257  0.00  0.00    +0.163 C 
BRANCH  20  21
ATOM     21  C   GLY A   7      -3.036   9.191  24.947  0.00  0.00    +0.229 C 
ATOM     22  O   GLY A   7      -3.806  10.134  24.818  0.00  0.00    -0.286 OA
ENDBRANCH  20  21
ENDBRANCH  18  20
ENDBRANCH  15  16
ENDBRANCH  12  15
ENDBRANCH  10  11
BRANCH  10  23
ATOM     23  CB  ILE A   5      -5.394  13.631  30.502  0.00  0.00    +0.027 C 
ATOM     24  CG2 ILE A   5      -5.506  12.850  31.825  0.00  0.00    +0.002 C 
BRANCH  23  25
ATOM     25  CG1 ILE A   5      -4.771  15.002  30.776  0.00  0.00    +0.002 C 
ATOM     26  CD1 ILE A   5      -5.617  15.943  31.634  0.00  0.00    +0.000 C 
ENDBRANCH  23  25
ENDBRANCH  10  23
ENDBRANCH   7  10
ENDBRANCH   5   6
ENDBRANCH   2   5
BRANCH   1  27
ATOM     27  CA  GLY A   3      -3.370  12.744  22.449  0.00  0.00    +0.176 C 
BRANCH  27  29
ATOM     28  C   ILE A   2      -4.445  12.012  20.459  0.00  0.00    +0.241 C 
ATOM     29  N   GLY A   3      -3.818  12.991  21.079  0.00  0.00    -0.295 N 
ATOM     30  H   GLY A   3      -3.648  13.905  20.612  0.00  0.00    +0.150 HD
ATOM     31  O   ILE A   2      -4.579  10.893  20.926  0.00  0.00    -0.273 OA
BRANCH  28  32
ATOM     32  CA  ILE A   2      -5.000  12.335  19.103  0.00  0.00    +0.148 C 
BRANCH  32  34
ATOM     33  C   MET A   1      -4.447  11.173  17.146  0.00  0.00    +0.238 C 
ATOM     34  N   ILE A   2      -5.029  11.100  18.317  0.00  0.00    -0.297 N 
ATOM     35  H   ILE A   2      -5.479  10.229  18.663  0.00  0.00    +0.150 HD
ATOM     36  O   MET A   1      -4.135  12.235  16.637  0.00  0.00    -0.274 OA
BRANCH  33  37
ATOM     37  CA  MET A   1      -4.083   9.896  16.449  0.00  0.00    +0.146 C 
BRANCH  37  38
ATOM     38  N   MET A   1      -4.335  10.143  15.014  0.00  0.00    -0.238 NA
ATOM     39  H   MET A   1      -3.735  10.834  14.520  0.00  0.00    +0.142 HD
ENDBRANCH  37  38
BRANCH  37  40
ATOM     40  CB  MET A   1      -2.598   9.906  16.838  0.00  0.00    +0.038 C 
BRANCH  40  41
ATOM     41  CG  MET A   1      -1.631   9.019  16.089  0.00  0.00    +0.060 C 
BRANCH  41  42
ATOM     42  SD  MET A   1      -1.554   7.416  16.846  0.00  0.00    -0.139 S 
ATOM     43  CE  MET A   1      -0.791   6.608  15.428  0.00  0.00    +0.069 C 
ENDBRANCH  41  42
ENDBRANCH  40  41
ENDBRANCH  37  40
ENDBRANCH  33  37
ENDBRANCH  32  34
BRANCH  32  44
ATOM     44  CB  ILE A   2      -6.394  12.978  19.223  0.00  0.00    +0.027 C 
ATOM     45  CG2 ILE A   2      -6.906  13.521  17.886  0.00  0.00    +0.002 C 
BRANCH  44  46
ATOM     46  CG1 ILE A   2      -7.471  12.097  19.825  0.00  0.00    +0.002 C 
ATOM     47  CD1 ILE A   2      -8.721  12.934  20.078  0.00  0.00    +0.000 C 
ENDBRANCH  44  46
ENDBRANCH  32  44
ENDBRANCH  28  32
ENDBRANCH  27  29
ENDBRANCH   1  27
TORSDOF 21
REMARK  Name = ../refined-set-2016/1mes/1mes_pocket.pdb
REMARK  209 active torsions:
REMARK  status: ('A' for Active; 'I' for Inactive)
REMARK    1  A    between atoms: _1  and  _3
REMARK    2  A    between atoms: _3  and  _4
REMARK    3  A    between atoms: _3  and  _6
REMARK    4  A    between atoms: _6  and  _7
REMARK    5  A    between atoms: _7  and  _8
REMARK    6  A    between atoms: _8  and  _9
REMARK    7  A    between atoms: _18  and  _20
REMARK    8  A    between atoms: _20  and  _21
REMARK    9  A    between atoms: _20  and  _23
REMARK   10  A    between atoms: _23  and  _24
REMARK   11  A    between atoms: _27  and  _29
REMARK   12  A    between atoms: _29  and  _30
REMARK   13  A    between atoms: _29  and  _32
REMARK   14  A    between atoms: _32  and  _33
REMARK   15  A    between atoms: _36  and  _38
REMARK   16  A    between atoms: _38  and  _39
REMARK   17  A    between atoms: _38  and  _41
REMARK   18  A    between atoms: _41  and  _42
REMARK   19  A    between atoms: _45  and  _47
REMARK   20  A    between atoms: _47  and  _48
REMARK   21  A    between atoms: _47  and  _50
REMARK   22  A    between atoms: _50  and  _51
REMARK   23  A    between atoms: _54  and  _56
REMARK   24  A    between atoms: _56  and  _57
REMARK   25  A    between atoms: _59  and  _61
REMARK   26  A    between atoms: _61  and  _62
REMARK   27  A    between atoms: _65  and  _67
REMARK   28  A    between atoms: _67  and  _68
REMARK   29  A    between atoms: _67  and  _70
REMARK   30  A    between atoms: _70  and  _71
REMARK   31  A    between atoms: _74  and  _76
REMARK   32  A    between atoms: _76  and  _77
REMARK   33  A    between atoms: _76  and  _79
REMARK   34  A    between atoms: _79  and  _80
REMARK   35  A    between atoms: _83  and  _85
REMARK   36  A    between atoms: _85  and  _86
REMARK   37  A    between atoms: _85  and  _88
REMARK   38  A    between atoms: _88  and  _89
REMARK   39  A    between atoms: _92  and  _94
REMARK   40  A    between atoms: _94  and  _95
REMARK   41  A    between atoms: _94  and  _97
REMARK   42  A    between atoms: _100  and  _102
REMARK   43  A    between atoms: _102  and  _103
REMARK   44  A    between atoms: _102  and  _105
REMARK   45  A    between atoms: _105  and  _106
REMARK   46  A    between atoms: _106  and  _107
REMARK   47  A    between atoms: _107  and  _108
REMARK   48  A    between atoms: _108  and  _109
REMARK   49  A    between atoms: _113  and  _115
REMARK   50  A    between atoms: _115  and  _116
REMARK   51  A    between atoms: _115  and  _118
REMARK   52  A    between atoms: _118  and  _119
REMARK   53  A    between atoms: _122  and  _124
REMARK   54  A    between atoms: _124  and  _125
REMARK   55  A    between atoms: _127  and  _129
REMARK   56  A    between atoms: _129  and  _130
REMARK   57  A    between atoms: _132  and  _134
REMARK   58  A    between atoms: _134  and  _135
REMARK   59  A    between atoms: _134  and  _137
REMARK   60  A    between atoms: _137  and  _138
REMARK   61  A    between atoms: _141  and  _143
REMARK   62  A    between atoms: _143  and  _144
REMARK   63  A    between atoms: _146  and  _148
REMARK   64  A    between atoms: _148  and  _149
REMARK   65  A    between atoms: _151  and  _153
REMARK   66  A    between atoms: _153  and  _154
REMARK   67  A    between atoms: _153  and  _156
REMARK   68  A    between atoms: _156  and  _157
REMARK   69  A    between atoms: _160  and  _162
REMARK   70  A    between atoms: _162  and  _163
REMARK   71  A    between atoms: _162  and  _165
REMARK   72  A    between atoms: _168  and  _170
REMARK   73  A    between atoms: _170  and  _171
REMARK   74  A    between atoms: _170  and  _173
REMARK   75  A    between atoms: _173  and  _174
REMARK   76  A    between atoms: _178  and  _179
REMARK   77  A    between atoms: _184  and  _186
REMARK   78  A    between atoms: _186  and  _187
REMARK   79  A    between atoms: _186  and  _189
REMARK   80  A    between atoms: _189  and  _190
REMARK   81  A    between atoms: _194  and  _195
REMARK   82  A    between atoms: _200  and  _202
REMARK   83  A    between atoms: _202  and  _203
REMARK   84  A    between atoms: _202  and  _205
REMARK   85  A    between atoms: _208  and  _210
REMARK   86  A    between atoms: _210  and  _211
REMARK   87  A    between atoms: _210  and  _213
REMARK   88  A    between atoms: _213  and  _214
REMARK   89  A    between atoms: _219  and  _221
REMARK   90  A    between atoms: _221  and  _222
REMARK   91  A    between atoms: _221  and  _224
REMARK   92  A    between atoms: _227  and  _229
REMARK   93  A    between atoms: _229  and  _230
REMARK   94  A    between atoms: _229  and  _232
REMARK   95  A    between atoms: _232  and  _233
REMARK   96  A    between atoms: _236  and  _238
REMARK   97  A    between atoms: _238  and  _239
REMARK   98  A    between atoms: _241  and  _243
REMARK   99  A    between atoms: _243  and  _244
REMARK  100  A    between atoms: _243  and  _246
REMARK  101  A    between atoms: _246  and  _247
REMARK  102  A    between atoms: _247  and  _248
REMARK  103  A    between atoms: _248  and  _249
REMARK  104  A    between atoms: _258  and  _260
REMARK  105  A    between atoms: _260  and  _261
REMARK  106  A    between atoms: _260  and  _263
REMARK  107  A    between atoms: _263  and  _264
REMARK  108  A    between atoms: _269  and  _271
REMARK  109  A    between atoms: _271  and  _272
REMARK  110  A    between atoms: _271  and  _274
REMARK  111  A    between atoms: _274  and  _275
REMARK  112  A    between atoms: _275  and  _276
REMARK  113  A    between atoms: _276  and  _277
REMARK  114  A    between atoms: _286  and  _288
REMARK  115  A    between atoms: _288  and  _289
REMARK  116  A    between atoms: _288  and  _291
REMARK  117  A    between atoms: _291  and  _292
REMARK  118  A    between atoms: _295  and  _297
REMARK  119  A    between atoms: _297  and  _298
REMARK  120  A    between atoms: _297  and  _300
REMARK  121  A    between atoms: _300  and  _301
REMARK  122  A    between atoms: _304  and  _306
REMARK  123  A    between atoms: _306  and  _307
REMARK  124  A    between atoms: _306  and  _309
REMARK  125  A    between atoms: _309  and  _310
REMARK  126  A    between atoms: _313  and  _315
REMARK  127  A    between atoms: _315  and  _316
REMARK  128  A    between atoms: _315  and  _318
REMARK  129  A    between atoms: _318  and  _319
REMARK  130  A    between atoms: _322  and  _324
REMARK  131  A    between atoms: _324  and  _325
REMARK  132  A    between atoms: _327  and  _329
REMARK  133  A    between atoms: _329  and  _330
REMARK  134  A    between atoms: _333  and  _335
REMARK  135  A    between atoms: _335  and  _336
REMARK  136  A    between atoms: _335  and  _338
REMARK  137  A    between atoms: _338  and  _339
REMARK  138  A    between atoms: _342  and  _344
REMARK  139  A    between atoms: _344  and  _345
REMARK  140  A    between atoms: _344  and  _347
REMARK  141  A    between atoms: _347  and  _348
REMARK  142  A    between atoms: _351  and  _353
REMARK  143  A    between atoms: _353  and  _354
REMARK  144  A    between atoms: _353  and  _356
REMARK  145  A    between atoms: _356  and  _357
REMARK  146  A    between atoms: _360  and  _362
REMARK  147  A    between atoms: _362  and  _363
REMARK  148  A    between atoms: _362  and  _365
REMARK  149  A    between atoms: _368  and  _370
REMARK  150  A    between atoms: _370  and  _371
REMARK  151  A    between atoms: _370  and  _373
REMARK  152  A    between atoms: _373  and  _374
REMARK  153  A    between atoms: _374  and  _375
REMARK  154  A    between atoms: _377  and  _379
REMARK  155  A    between atoms: _379  and  _380
REMARK  156  A    between atoms: _379  and  _382
REMARK  157  A    between atoms: _382  and  _383
REMARK  158  A    between atoms: _386  and  _388
REMARK  159  A    between atoms: _388  and  _389
REMARK  160  A    between atoms: _391  and  _393
REMARK  161  A    between atoms: _393  and  _394
REMARK  162  A    between atoms: _396  and  _398
REMARK  163  A    between atoms: _398  and  _399
REMARK  164  A    between atoms: _398  and  _401
REMARK  165  A    between atoms: _401  and  _402
REMARK  166  A    between atoms: _405  and  _407
REMARK  167  A    between atoms: _407  and  _408
REMARK  168  A    between atoms: _410  and  _412
REMARK  169  A    between atoms: _412  and  _413
REMARK  170  A    between atoms: _415  and  _417
REMARK  171  A    between atoms: _417  and  _418
REMARK  172  A    between atoms: _417  and  _420
REMARK  173  A    between atoms: _420  and  _421
REMARK  174  A    between atoms: _424  and  _426
REMARK  175  A    between atoms: _426  and  _427
REMARK  176  A    between atoms: _426  and  _429
REMARK  177  A    between atoms: _429  and  _430
REMARK  178  A    between atoms: _434  and  _435
REMARK  179  A    between atoms: _440  and  _442
REMARK  180  A    between atoms: _442  and  _443
REMARK  181  A    between atoms: _442  and  _445
REMARK  182  A    between atoms: _445  and  _446
REMARK  183  A    between atoms: _450  and  _451
REMARK  184  A    between atoms: _456  and  _458
REMARK  185  A    between atoms: _458  and  _459
REMARK  186  A    between atoms: _458  and  _461
REMARK  187  A    between atoms: _464  and  _466
REMARK  188  A    between atoms: _466  and  _467
REMARK  189  A    between atoms: _466  and  _469
REMARK  190  A    between atoms: _469  and  _470
REMARK  191  A    between atoms: _475  and  _477
REMARK  192  A    between atoms: _477  and  _478
REMARK  193  A    between atoms: _477  and  _480
REMARK  194  A    between atoms: _483  and  _485
REMARK  195  A    between atoms: _485  and  _486
REMARK  196  A    between atoms: _485  and  _488
REMARK  197  A    between atoms: _488  and  _489
REMARK  198  A    between atoms: _492  and  _494
REMARK  199  A    between atoms: _494  and  _495
REMARK  200  A    between atoms: _497  and  _499
REMARK  201  A    between atoms: _499  and  _500
REMARK  202  A    between atoms: _499  and  _502
REMARK  203  A    between atoms: _502  and  _503
REMARK  204  A    between atoms: _503  and  _504
REMARK  205  A    between atoms: _504  and  _505
REMARK  206  A    between atoms: _514  and  _516
REMARK  207  A    between atoms: _516  and  _517
REMARK  208  A    between atoms: _516  and  _519
REMARK  209  A    between atoms: _519  and  _520
REMARK                            x       y       z     vdW  Elec       q    Type
REMARK                         _______ _______ _______ _____ _____    ______ ____
ROOT
ATOM      1  CA  ILE A   1      -6.024   7.308  20.718  0.00  0.00    +0.133 C 
ENDROOT
BRANCH   1   2
ATOM      2  N   ILE A   1      -5.119   8.293  21.315  0.00  0.00    -0.239 NA
ATOM      3  H   ILE A   1      -5.157   9.299  21.055  0.00  0.00    +0.142 HD
ENDBRANCH   1   2
BRANCH   1   4
ATOM      4  CB  ILE A   1      -7.481   7.454  21.230  0.00  0.00    +0.023 C 
ATOM      5  CG2 ILE A   1      -7.607   7.062  22.708  0.00  0.00    +0.002 C 
BRANCH   4   6
ATOM      6  CG1 ILE A   1      -8.114   8.825  21.005  0.00  0.00    +0.002 C 
ATOM      7  CD1 ILE A   1      -9.580   8.849  21.435  0.00  0.00    +0.000 C 
ENDBRANCH   4   6
ENDBRANCH   1   4
BRANCH   1   8
ATOM      8  C   ILE A   1      -5.985   7.402  19.207  0.00  0.00    +0.224 C 
ATOM      9  O   ILE A   1      -5.544   8.400  18.653  0.00  0.00    -0.287 OA
ENDBRANCH   1   8
TORSDOF 4
REMARK  Name = ../refined-set-2016/1mes/1mes_pocket.pdb
REMARK  209 active torsions:
REMARK  status: ('A' for Active; 'I' for Inactive)
REMARK    1  A    between atoms: _1  and  _3
REMARK    2  A    between atoms: _3  and  _4
REMARK    3  A    between atoms: _3  and  _6
REMARK    4  A    between atoms: _6  and  _7
REMARK    5  A    between atoms: _7  and  _8
REMARK    6  A    between atoms: _8  and  _9
REMARK    7  A    between atoms: _18  and  _20
REMARK    8  A    between atoms: _20  and  _21
REMARK    9  A    between atoms: _20  and  _23
REMARK   10  A    between atoms: _23  and  _24
REMARK   11  A    between atoms: _27  and  _29
REMARK   12  A    between atoms: _29  and  _30
REMARK   13  A    between atoms: _29  and  _32
REMARK   14  A    between atoms: _32  and  _33
REMARK   15  A    between atoms: _36  and  _38
REMARK   16  A    between atoms: _38  and  _39
REMARK   17  A    between atoms: _38  and  _41
REMARK   18  A    between atoms: _41  and  _42
REMARK   19  A    between atoms: _45  and  _47
REMARK   20  A    between atoms: _47  and  _48
REMARK   21  A    between atoms: _47  and  _50
REMARK   22  A    between atoms: _50  and  _51
REMARK   23  A    between atoms: _54  and  _56
REMARK   24  A    between atoms: _56  and  _57
REMARK   25  A    between atoms: _59  and  _61
REMARK   26  A    between atoms: _61  and  _62
REMARK   27  A    between atoms: _65  and  _67
REMARK   28  A    between atoms: _67  and  _68
REMARK   29  A    between atoms: _67  and  _70
REMARK   30  A    between atoms: _70  and  _71
REMARK   31  A    between atoms: _74  and  _76
REMARK   32  A    between atoms: _76  and  _77
REMARK   33  A    between atoms: _76  and  _79
REMARK   34  A    between atoms: _79  and  _80
REMARK   35  A    between atoms: _83  and  _85
REMARK   36  A    between atoms: _85  and  _86
REMARK   37  A    between atoms: _85  and  _88
REMARK   38  A    between atoms: _88  and  _89
REMARK   39  A    between atoms: _92  and  _94
REMARK   40  A    between atoms: _94  and  _95
REMARK   41  A    between atoms: _94  and  _97
REMARK   42  A    between atoms: _100  and  _102
REMARK   43  A    between atoms: _102  and  _103
REMARK   44  A    between atoms: _102  and  _105
REMARK   45  A    between atoms: _105  and  _106
REMARK   46  A    between atoms: _106  and  _107
REMARK   47  A    between atoms: _107  and  _108
REMARK   48  A    between atoms: _108  and  _109
REMARK   49  A    between atoms: _113  and  _115
REMARK   50  A    between atoms: _115  and  _116
REMARK   51  A    between atoms: _115  and  _118
REMARK   52  A    between atoms: _118  and  _119
REMARK   53  A    between atoms: _122  and  _124
REMARK   54  A    between atoms: _124  and  _125
REMARK   55  A    between atoms: _127  and  _129
REMARK   56  A    between atoms: _129  and  _130
REMARK   57  A    between atoms: _132  and  _134
REMARK   58  A    between atoms: _134  and  _135
REMARK   59  A    between atoms: _134  and  _137
REMARK   60  A    between atoms: _137  and  _138
REMARK   61  A    between atoms: _141  and  _143
REMARK   62  A    between atoms: _143  and  _144
REMARK   63  A    between atoms: _146  and  _148
REMARK   64  A    between atoms: _148  and  _149
REMARK   65  A    between atoms: _151  and  _153
REMARK   66  A    between atoms: _153  and  _154
REMARK   67  A    between atoms: _153  and  _156
REMARK   68  A    between atoms: _156  and  _157
REMARK   69  A    between atoms: _160  and  _162
REMARK   70  A    between atoms: _162  and  _163
REMARK   71  A    between atoms: _162  and  _165
REMARK   72  A    between atoms: _168  and  _170
REMARK   73  A    between atoms: _170  and  _171
REMARK   74  A    between atoms: _170  and  _173
REMARK   75  A    between atoms: _173  and  _174
REMARK   76  A    between atoms: _178  and  _179
REMARK   77  A    between atoms: _184  and  _186
REMARK   78  A    between atoms: _186  and  _187
REMARK   79  A    between atoms: _186  and  _189
REMARK   80  A    between atoms: _189  and  _190
REMARK   81  A    between atoms: _194  and  _195
REMARK   82  A    between atoms: _200  and  _202
REMARK   83  A    between atoms: _202  and  _203
REMARK   84  A    between atoms: _202  and  _205
REMARK   85  A    between atoms: _208  and  _210
REMARK   86  A    between atoms: _210  and  _211
REMARK   87  A    between atoms: _210  and  _213
REMARK   88  A    between atoms: _213  and  _214
REMARK   89  A    between atoms: _219  and  _221
REMARK   90  A    between atoms: _221  and  _222
REMARK   91  A    between atoms: _221  and  _224
REMARK   92  A    between atoms: _227  and  _229
REMARK   93  A    between atoms: _229  and  _230
REMARK   94  A    between atoms: _229  and  _232
REMARK   95  A    between atoms: _232  and  _233
REMARK   96  A    between atoms: _236  and  _238
REMARK   97  A    between atoms: _238  and  _239
REMARK   98  A    between atoms: _241  and  _243
REMARK   99  A    between atoms: _243  and  _244
REMARK  100  A    between atoms: _243  and  _246
REMARK  101  A    between atoms: _246  and  _247
REMARK  102  A    between atoms: _247  and  _248
REMARK  103  A    between atoms: _248  and  _249
REMARK  104  A    between atoms: _258  and  _260
REMARK  105  A    between atoms: _260  and  _261
REMARK  106  A    between atoms: _260  and  _263
REMARK  107  A    between atoms: _263  and  _264
REMARK  108  A    between atoms: _269  and  _271
REMARK  109  A    between atoms: _271  and  _272
REMARK  110  A    between atoms: _271  and  _274
REMARK  111  A    between atoms: _274  and  _275
REMARK  112  A    between atoms: _275  and  _276
REMARK  113  A    between atoms: _276  and  _277
REMARK  114  A    between atoms: _286  and  _288
REMARK  115  A    between atoms: _288  and  _289
REMARK  116  A    between atoms: _288  and  _291
REMARK  117  A    between atoms: _291  and  _292
REMARK  118  A    between atoms: _295  and  _297
REMARK  119  A    between atoms: _297  and  _298
REMARK  120  A    between atoms: _297  and  _300
REMARK  121  A    between atoms: _300  and  _301
REMARK  122  A    between atoms: _304  and  _306
REMARK  123  A    between atoms: _306  and  _307
REMARK  124  A    between atoms: _306  and  _309
REMARK  125  A    between atoms: _309  and  _310
REMARK  126  A    between atoms: _313  and  _315
REMARK  127  A    between atoms: _315  and  _316
REMARK  128  A    between atoms: _315  and  _318
REMARK  129  A    between atoms: _318  and  _319
REMARK  130  A    between atoms: _322  and  _324
REMARK  131  A    between atoms: _324  and  _325
REMARK  132  A    between atoms: _327  and  _329
REMARK  133  A    between atoms: _329  and  _330
REMARK  134  A    between atoms: _333  and  _335
REMARK  135  A    between atoms: _335  and  _336
REMARK  136  A    between atoms: _335  and  _338
REMARK  137  A    between atoms: _338  and  _339
REMARK  138  A    between atoms: _342  and  _344
REMARK  139  A    between atoms: _344  and  _345
REMARK  140  A    between atoms: _344  and  _347
REMARK  141  A    between atoms: _347  and  _348
REMARK  142  A    between atoms: _351  and  _353
REMARK  143  A    between atoms: _353  and  _354
REMARK  144  A    between atoms: _353  and  _356
REMARK  145  A    between atoms: _356  and  _357
REMARK  146  A    between atoms: _360  and  _362
REMARK  147  A    between atoms: _362  and  _363
REMARK  148  A    between atoms: _362  and  _365
REMARK  149  A    between atoms: _368  and  _370
REMARK  150  A    between atoms: _370  and  _371
REMARK  151  A    between atoms: _370  and  _373
REMARK  152  A    between atoms: _373  and  _374
REMARK  153  A    between atoms: _374  and  _375
REMARK  154  A    between atoms: _377  and  _379
REMARK  155  A    between atoms: _379  and  _380
REMARK  156  A    between atoms: _379  and  _382
REMARK  157  A    between atoms: _382  and  _383
REMARK  158  A    between atoms: _386  and  _388
REMARK  159  A    between atoms: _388  and  _389
REMARK  160  A    between atoms: _391  and  _393
REMARK  161  A    between atoms: _393  and  _394
REMARK  162  A    between atoms: _396  and  _398
REMARK  163  A    between atoms: _398  and  _399
REMARK  164  A    between atoms: _398  and  _401
REMARK  165  A    between atoms: _401  and  _402
REMARK  166  A    between atoms: _405  and  _407
REMARK  167  A    between atoms: _407  and  _408
REMARK  168  A    between atoms: _410  and  _412
REMARK  169  A    between atoms: _412  and  _413
REMARK  170  A    between atoms: _415  and  _417
REMARK  171  A    between atoms: _417  and  _418
REMARK  172  A    between atoms: _417  and  _420
REMARK  173  A    between atoms: _420  and  _421
REMARK  174  A    between atoms: _424  and  _426
REMARK  175  A    between atoms: _426  and  _427
REMARK  176  A    between atoms: _426  and  _429
REMARK  177  A    between atoms: _429  and  _430
REMARK  178  A    between atoms: _434  and  _435
REMARK  179  A    between atoms: _440  and  _442
REMARK  180  A    between atoms: _442  and  _443
REMARK  181  A    between atoms: _442  and  _445
REMARK  182  A    between atoms: _445  and  _446
REMARK  183  A    between atoms: _450  and  _451
REMARK  184  A    between atoms: _456  and  _458
REMARK  185  A    between atoms: _458  and  _459
REMARK  186  A    between atoms: _458  and  _461
REMARK  187  A    between atoms: _464  and  _466
REMARK  188  A    between atoms: _466  and  _467
REMARK  189  A    between atoms: _466  and  _469
REMARK  190  A    between atoms: _469  and  _470
REMARK  191  A    between atoms: _475  and  _477
REMARK  192  A    between atoms: _477  and  _478
REMARK  193  A    between atoms: _477  and  _480
REMARK  194  A    between atoms: _483  and  _485
REMARK  195  A    between atoms: _485  and  _486
REMARK  196  A    between atoms: _485  and  _488
REMARK  197  A    between atoms: _488  and  _489
REMARK  198  A    between atoms: _492  and  _494
REMARK  199  A    between atoms: _494  and  _495
REMARK  200  A    between atoms: _497  and  _499
REMARK  201  A    between atoms: _499  and  _500
REMARK  202  A    between atoms: _499  and  _502
REMARK  203  A    between atoms: _502  and  _503
REMARK  204  A    between atoms: _503  and  _504
REMARK  205  A    between atoms: _504  and  _505
REMARK  206  A    between atoms: _514  and  _516
REMARK  207  A    between atoms: _516  and  _517
REMARK  208  A    between atoms: _516  and  _519
REMARK  209  A    between atoms: _519  and  _520
REMARK                            x       y       z     vdW  Elec       q    Type
REMARK                         _______ _______ _______ _____ _____    ______ ____
ROOT
ATOM      1  CA  LEU A   1     -13.126  12.703  14.833  0.00  0.00    +0.133 C 
ENDROOT
BRANCH   1   2
ATOM      2  N   LEU A   1     -13.938  13.912  14.634  0.00  0.00    -0.239 NA
ATOM      3  H   LEU A   1     -14.108  14.549  15.438  0.00  0.00    +0.142 HD
ENDBRANCH   1   2
BRANCH   1   4
ATOM      4  C   LEU A   1     -13.958  11.711  15.572  0.00  0.00    +0.224 C 
ATOM      5  O   LEU A   1     -14.579  12.068  16.560  0.00  0.00    -0.287 OA
ENDBRANCH   1   4
BRANCH   1   6
ATOM      6  CB  LEU A   1     -11.931  12.963  15.745  0.00  0.00    +0.025 C 
BRANCH   6   7
ATOM      7  CG  LEU A   1     -11.098  14.118  15.251  0.00  0.00    +0.002 C 
ATOM      8  CD2 LEU A   1      -9.913  14.319  16.180  0.00  0.00    +0.000 C 
ATOM      9  CD1 LEU A   1     -10.673  13.930  13.805  0.00  0.00    +0.000 C 
ENDBRANCH   6   7
ENDBRANCH   1   6
TORSDOF 4
REMARK  Name = ../refined-set-2016/1mes/1mes_pocket.pdb
REMARK  209 active torsions:
REMARK  status: ('A' for Active; 'I' for Inactive)
REMARK    1  A    between atoms: _1  and  _3
REMARK    2  A    between atoms: _3  and  _4
REMARK    3  A    between atoms: _3  and  _6
REMARK    4  A    between atoms: _6  and  _7
REMARK    5  A    between atoms: _7  and  _8
REMARK    6  A    between atoms: _8  and  _9
REMARK    7  A    between atoms: _18  and  _20
REMARK    8  A    between atoms: _20  and  _21
REMARK    9  A    between atoms: _20  and  _23
REMARK   10  A    between atoms: _23  and  _24
REMARK   11  A    between atoms: _27  and  _29
REMARK   12  A    between atoms: _29  and  _30
REMARK   13  A    between atoms: _29  and  _32
REMARK   14  A    between atoms: _32  and  _33
REMARK   15  A    between atoms: _36  and  _38
REMARK   16  A    between atoms: _38  and  _39
REMARK   17  A    between atoms: _38  and  _41
REMARK   18  A    between atoms: _41  and  _42
REMARK   19  A    between atoms: _45  and  _47
REMARK   20  A    between atoms: _47  and  _48
REMARK   21  A    between atoms: _47  and  _50
REMARK   22  A    between atoms: _50  and  _51
REMARK   23  A    between atoms: _54  and  _56
REMARK   24  A    between atoms: _56  and  _57
REMARK   25  A    between atoms: _59  and  _61
REMARK   26  A    between atoms: _61  and  _62
REMARK   27  A    between atoms: _65  and  _67
REMARK   28  A    between atoms: _67  and  _68
REMARK   29  A    between atoms: _67  and  _70
REMARK   30  A    between atoms: _70  and  _71
REMARK   31  A    between atoms: _74  and  _76
REMARK   32  A    between atoms: _76  and  _77
REMARK   33  A    between atoms: _76  and  _79
REMARK   34  A    between atoms: _79  and  _80
REMARK   35  A    between atoms: _83  and  _85
REMARK   36  A    between atoms: _85  and  _86
REMARK   37  A    between atoms: _85  and  _88
REMARK   38  A    between atoms: _88  and  _89
REMARK   39  A    between atoms: _92  and  _94
REMARK   40  A    between atoms: _94  and  _95
REMARK   41  A    between atoms: _94  and  _97
REMARK   42  A    between atoms: _100  and  _102
REMARK   43  A    between atoms: _102  and  _103
REMARK   44  A    between atoms: _102  and  _105
REMARK   45  A    between atoms: _105  and  _106
REMARK   46  A    between atoms: _106  and  _107
REMARK   47  A    between atoms: _107  and  _108
REMARK   48  A    between atoms: _108  and  _109
REMARK   49  A    between atoms: _113  and  _115
REMARK   50  A    between atoms: _115  and  _116
REMARK   51  A    between atoms: _115  and  _118
REMARK   52  A    between atoms: _118  and  _119
REMARK   53  A    between atoms: _122  and  _124
REMARK   54  A    between atoms: _124  and  _125
REMARK   55  A    between atoms: _127  and  _129
REMARK   56  A    between atoms: _129  and  _130
REMARK   57  A    between atoms: _132  and  _134
REMARK   58  A    between atoms: _134  and  _135
REMARK   59  A    between atoms: _134  and  _137
REMARK   60  A    between atoms: _137  and  _138
REMARK   61  A    between atoms: _141  and  _143
REMARK   62  A    between atoms: _143  and  _144
REMARK   63  A    between atoms: _146  and  _148
REMARK   64  A    between atoms: _148  and  _149
REMARK   65  A    between atoms: _151  and  _153
REMARK   66  A    between atoms: _153  and  _154
REMARK   67  A    between atoms: _153  and  _156
REMARK   68  A    between atoms: _156  and  _157
REMARK   69  A    between atoms: _160  and  _162
REMARK   70  A    between atoms: _162  and  _163
REMARK   71  A    between atoms: _162  and  _165
REMARK   72  A    between atoms: _168  and  _170
REMARK   73  A    between atoms: _170  and  _171
REMARK   74  A    between atoms: _170  and  _173
REMARK   75  A    between atoms: _173  and  _174
REMARK   76  A    between atoms: _178  and  _179
REMARK   77  A    between atoms: _184  and  _186
REMARK   78  A    between atoms: _186  and  _187
REMARK   79  A    between atoms: _186  and  _189
REMARK   80  A    between atoms: _189  and  _190
REMARK   81  A    between atoms: _194  and  _195
REMARK   82  A    between atoms: _200  and  _202
REMARK   83  A    between atoms: _202  and  _203
REMARK   84  A    between atoms: _202  and  _205
REMARK   85  A    between atoms: _208  and  _210
REMARK   86  A    between atoms: _210  and  _211
REMARK   87  A    between atoms: _210  and  _213
REMARK   88  A    between atoms: _213  and  _214
REMARK   89  A    between atoms: _219  and  _221
REMARK   90  A    between atoms: _221  and  _222
REMARK   91  A    between atoms: _221  and  _224
REMARK   92  A    between atoms: _227  and  _229
REMARK   93  A    between atoms: _229  and  _230
REMARK   94  A    between atoms: _229  and  _232
REMARK   95  A    between atoms: _232  and  _233
REMARK   96  A    between atoms: _236  and  _238
REMARK   97  A    between atoms: _238  and  _239
REMARK   98  A    between atoms: _241  and  _243
REMARK   99  A    between atoms: _243  and  _244
REMARK  100  A    between atoms: _243  and  _246
REMARK  101  A    between atoms: _246  and  _247
REMARK  102  A    between atoms: _247  and  _248
REMARK  103  A    between atoms: _248  and  _249
REMARK  104  A    between atoms: _258  and  _260
REMARK  105  A    between atoms: _260  and  _261
REMARK  106  A    between atoms: _260  and  _263
REMARK  107  A    between atoms: _263  and  _264
REMARK  108  A    between atoms: _269  and  _271
REMARK  109  A    between atoms: _271  and  _272
REMARK  110  A    between atoms: _271  and  _274
REMARK  111  A    between atoms: _274  and  _275
REMARK  112  A    between atoms: _275  and  _276
REMARK  113  A    between atoms: _276  and  _277
REMARK  114  A    between atoms: _286  and  _288
REMARK  115  A    between atoms: _288  and  _289
REMARK  116  A    between atoms: _288  and  _291
REMARK  117  A    between atoms: _291  and  _292
REMARK  118  A    between atoms: _295  and  _297
REMARK  119  A    between atoms: _297  and  _298
REMARK  120  A    between atoms: _297  and  _300
REMARK  121  A    between atoms: _300  and  _301
REMARK  122  A    between atoms: _304  and  _306
REMARK  123  A    between atoms: _306  and  _307
REMARK  124  A    between atoms: _306  and  _309
REMARK  125  A    between atoms: _309  and  _310
REMARK  126  A    between atoms: _313  and  _315
REMARK  127  A    between atoms: _315  and  _316
REMARK  128  A    between atoms: _315  and  _318
REMARK  129  A    between atoms: _318  and  _319
REMARK  130  A    between atoms: _322  and  _324
REMARK  131  A    between atoms: _324  and  _325
REMARK  132  A    between atoms: _327  and  _329
REMARK  133  A    between atoms: _329  and  _330
REMARK  134  A    between atoms: _333  and  _335
REMARK  135  A    between atoms: _335  and  _336
REMARK  136  A    between atoms: _335  and  _338
REMARK  137  A    between atoms: _338  and  _339
REMARK  138  A    between atoms: _342  and  _344
REMARK  139  A    between atoms: _344  and  _345
REMARK  140  A    between atoms: _344  and  _347
REMARK  141  A    between atoms: _347  and  _348
REMARK  142  A    between atoms: _351  and  _353
REMARK  143  A    between atoms: _353  and  _354
REMARK  144  A    between atoms: _353  and  _356
REMARK  145  A    between atoms: _356  and  _357
REMARK  146  A    between atoms: _360  and  _362
REMARK  147  A    between atoms: _362  and  _363
REMARK  148  A    between atoms: _362  and  _365
REMARK  149  A    between atoms: _368  and  _370
REMARK  150  A    between atoms: _370  and  _371
REMARK  151  A    between atoms: _370  and  _373
REMARK  152  A    between atoms: _373  and  _374
REMARK  153  A    between atoms: _374  and  _375
REMARK  154  A    between atoms: _377  and  _379
REMARK  155  A    between atoms: _379  and  _380
REMARK  156  A    between atoms: _379  and  _382
REMARK  157  A    between atoms: _382  and  _383
REMARK  158  A    between atoms: _386  and  _388
REMARK  159  A    between atoms: _388  and  _389
REMARK  160  A    between atoms: _391  and  _393
REMARK  161  A    between atoms: _393  and  _394
REMARK  162  A    between atoms: _396  and  _398
REMARK  163  A    between atoms: _398  and  _399
REMARK  164  A    between atoms: _398  and  _401
REMARK  165  A    between atoms: _401  and  _402
REMARK  166  A    between atoms: _405  and  _407
REMARK  167  A    between atoms: _407  and  _408
REMARK  168  A    between atoms: _410  and  _412
REMARK  169  A    between atoms: _412  and  _413
REMARK  170  A    between atoms: _415  and  _417
REMARK  171  A    between atoms: _417  and  _418
REMARK  172  A    between atoms: _417  and  _420
REMARK  173  A    between atoms: _420  and  _421
REMARK  174  A    between atoms: _424  and  _426
REMARK  175  A    between atoms: _426  and  _427
REMARK  176  A    between atoms: _426  and  _429
REMARK  177  A    between atoms: _429  and  _430
REMARK  178  A    between atoms: _434  and  _435
REMARK  179  A    between atoms: _440  and  _442
REMARK  180  A    between atoms: _442  and  _443
REMARK  181  A    between atoms: _442  and  _445
REMARK  182  A    between atoms: _445  and  _446
REMARK  183  A    between atoms: _450  and  _451
REMARK  184  A    between atoms: _456  and  _458
REMARK  185  A    between atoms: _458  and  _459
REMARK  186  A    between atoms: _458  and  _461
REMARK  187  A    between atoms: _464  and  _466
REMARK  188  A    between atoms: _466  and  _467
REMARK  189  A    between atoms: _466  and  _469
REMARK  190  A    between atoms: _469  and  _470
REMARK  191  A    between atoms: _475  and  _477
REMARK  192  A    between atoms: _477  and  _478
REMARK  193  A    between atoms: _477  and  _480
REMARK  194  A    between atoms: _483  and  _485
REMARK  195  A    between atoms: _485  and  _486
REMARK  196  A    between atoms: _485  and  _488
REMARK  197  A    between atoms: _488  and  _489
REMARK  198  A    between atoms: _492  and  _494
REMARK  199  A    between atoms: _494  and  _495
REMARK  200  A    between atoms: _497  and  _499
REMARK  201  A    between atoms: _499  and  _500
REMARK  202  A    between atoms: _499  and  _502
REMARK  203  A    between atoms: _502  and  _503
REMARK  204  A    between atoms: _503  and  _504
REMARK  205  A    between atoms: _504  and  _505
REMARK  206  A    between atoms: _514  and  _516
REMARK  207  A    between atoms: _516  and  _517
REMARK  208  A    between atoms: _516  and  _519
REMARK  209  A    between atoms: _519  and  _520
REMARK                            x       y       z     vdW  Elec       q    Type
REMARK                         _______ _______ _______ _____ _____    ______ ____
ROOT
ATOM      1  CA  VAL A   6     -16.579  16.454  23.054  0.00  0.00    +0.149 C 
ENDROOT
BRANCH   1   2
ATOM      2  C   VAL A   6     -16.742  17.352  21.837  0.00  0.00    +0.241 C 
ATOM      3  N   ILE A   7     -17.331  18.526  22.062  0.00  0.00    -0.297 N 
ATOM      4  H   ILE A   7     -17.768  18.725  22.985  0.00  0.00    +0.150 HD
ATOM      5  O   VAL A   6     -16.379  16.992  20.727  0.00  0.00    -0.273 OA
BRANCH   3   6
ATOM      6  CA  ILE A   7     -17.359  19.529  21.006  0.00  0.00    +0.149 C 
BRANCH   6   7
ATOM      7  C   ILE A   7     -16.287  20.549  21.295  0.00  0.00    +0.241 C 
ATOM      8  O   ILE A   7     -16.384  21.272  22.265  0.00  0.00    -0.273 OA
ATOM      9  N   GLY A   8     -15.274  20.572  20.461  0.00  0.00    -0.295 N 
ATOM     10  H   GLY A   8     -15.263  19.931  19.642  0.00  0.00    +0.150 HD
BRANCH   9  11
ATOM     11  CA  GLY A   8     -14.166  21.491  20.677  0.00  0.00    +0.176 C 
BRANCH  11  12
ATOM     12  C   GLY A   8     -14.239  22.764  19.862  0.00  0.00    +0.243 C 
ATOM     13  N   ARG A   9     -13.123  23.471  19.857  0.00  0.00    -0.297 N 
ATOM     14  H   ARG A   9     -12.244  23.066  20.238  0.00  0.00    +0.150 HD
ATOM     15  O   GLY A   8     -15.241  23.140  19.262  0.00  0.00    -0.273 OA
BRANCH  13  16
ATOM     16  CA  ARG A   9     -13.133  24.820  19.314  0.00  0.00    +0.149 C 
BRANCH  16  17
ATOM     17  C   ARG A   9     -13.421  24.937  17.848  0.00  0.00    +0.241 C 
ATOM     18  O   ARG A   9     -14.011  25.916  17.416  0.00  0.00    -0.273 OA
ATOM     19  N   ASN A  10     -13.055  23.912  17.086  0.00  0.00    -0.298 N 
ATOM     20  H   ASN A  10     -12.515  23.110  17.469  0.00  0.00    +0.150 HD
BRANCH  19  21
ATOM     21  CA  ASN A  10     -13.454  23.974  15.675  0.00  0.00    +0.146 C 
BRANCH  21  22
ATOM     22  C   ASN A  10     -14.943  24.221  15.415  0.00  0.00    +0.227 C 
ATOM     23  O   ASN A  10     -15.331  24.925  14.498  0.00  0.00    -0.286 OA
ENDBRANCH  21  22
BRANCH  21  24
ATOM     24  CB  ASN A  10     -12.931  22.741  14.901  0.00  0.00    +0.112 C 
BRANCH  24  25
ATOM     25  CG  ASN A  10     -13.772  21.520  15.147  0.00  0.00    +0.222 C 
ATOM     26  OD1 ASN A  10     -14.132  21.204  16.263  0.00  0.00    -0.275 OA
ATOM     27  ND2 ASN A  10     -14.081  20.822  14.072  0.00  0.00    -0.329 N 
ATOM     28 HD21 ASN A  10     -14.657  19.960  14.159  0.00  0.00    +0.145 HD
ATOM     29 HD22 ASN A  10     -13.749  21.133  13.137  0.00  0.00    +0.145 HD
ENDBRANCH  24  25
ENDBRANCH  21  24
ENDBRANCH  19  21
ENDBRANCH  16  17
BRANCH  16  30
ATOM     30  CB  ARG A   9     -11.840  25.554  19.565  0.00  0.00    +0.033 C 
BRANCH  30  31
ATOM     31  CG  ARG A   9     -11.568  25.756  21.062  0.00  0.00    +0.045 C 
BRANCH  31  32
ATOM     32  CD  ARG A   9     -10.321  26.630  21.283  0.00  0.00    +0.174 C 
BRANCH  32  33
ATOM     33  NE  ARG A   9      -9.092  25.973  20.832  0.00  0.00    -0.265 N 
ATOM     34  HE  ARG A   9      -8.690  25.216  21.420  0.00  0.00    +0.259 HD
ATOM     35  CZ  ARG A   9      -8.467  26.301  19.704  0.00  0.00    +0.342 C 
ATOM     36  NH2 ARG A   9      -7.435  25.586  19.327  0.00  0.00    -0.292 N 
ATOM     37 HH21 ARG A   9      -7.121  24.781  19.906  0.00  0.00    +0.255 HD
ATOM     38 HH22 ARG A   9      -6.931  25.823  18.449  0.00  0.00    +0.255 HD
ATOM     39  NH1 ARG A   9      -8.851  27.307  18.939  0.00  0.00    -0.292 N 
ATOM     40 HH11 ARG A   9      -9.675  27.881  19.210  0.00  0.00    +0.255 HD
ATOM     41 HH12 ARG A   9      -8.330  27.525  18.066  0.00  0.00    +0.255 HD
ENDBRANCH  32  33
ENDBRANCH  31  32
ENDBRANCH  30  31
ENDBRANCH  16  30
ENDBRANCH  13  16
ENDBRANCH  11  12
ENDBRANCH   9  11
ENDBRANCH   6   7
BRANCH   6  42
ATOM     42  CB  ILE A   7     -18.712  20.246  21.005  0.00  0.00    +0.027 C 
ATOM     43  CG2 ILE A   7     -18.797  21.249  19.867  0.00  0.00    +0.002 C 
BRANCH  42  44
ATOM     44  CG1 ILE A   7     -19.937  19.345  20.964  0.00  0.00    +0.002 C 
ATOM     45  CD1 ILE A   7     -20.115  18.523  19.684  0.00  0.00    +0.000 C 
ENDBRANCH  42  44
ENDBRANCH   6  42
ENDBRANCH   3   6
ENDBRANCH   1   2
BRANCH   1  48
ATOM     46  C   ASN A   5     -18.174  14.641  23.447  0.00  0.00    +0.241 C 
ATOM     47  O   ASN A   5     -18.769  15.229  24.343  0.00  0.00    -0.273 OA
ATOM     48  N   VAL A   6     -17.173  15.154  22.754  0.00  0.00    -0.297 N 
ATOM     49  H   VAL A   6     -16.790  14.606  21.957  0.00  0.00    +0.150 HD
BRANCH  46  50
ATOM     50  CA  ASN A   5     -18.560  13.231  23.099  0.00  0.00    +0.158 C 
BRANCH  50  52
ATOM     51  C   VAL A   4     -17.254  12.071  24.759  0.00  0.00    +0.241 C 
ATOM     52  N   ASN A   5     -18.432  12.431  24.313  0.00  0.00    -0.297 N 
ATOM     53  H   ASN A   5     -19.287  12.143  24.831  0.00  0.00    +0.150 HD
ATOM     54  O   VAL A   4     -16.231  12.339  24.157  0.00  0.00    -0.273 OA
BRANCH  51  55
ATOM     55  CA  VAL A   4     -17.303  11.263  26.047  0.00  0.00    +0.149 C 
BRANCH  55  58
ATOM     56  C   PRO A   3     -16.598   9.032  26.674  0.00  0.00    +0.241 C 
ATOM     57  O   PRO A   3     -17.655   8.827  27.256  0.00  0.00    -0.273 OA
ATOM     58  N   VAL A   4     -16.333  10.177  26.027  0.00  0.00    -0.297 N 
ATOM     59  H   VAL A   4     -15.436  10.289  25.512  0.00  0.00    +0.150 HD
BRANCH  56  62
ATOM     60  C   THR A   2     -14.646   8.033  24.446  0.00  0.00    +0.246 C 
ATOM     61  N   PRO A   3     -14.406   8.213  25.743  0.00  0.00    -0.272 N 
ATOM     62  CA  PRO A   3     -15.491   7.975  26.697  0.00  0.00    +0.152 C 
ATOM     63  CB  PRO A   3     -14.725   7.956  28.034  0.00  0.00    +0.031 C 
ATOM     64  CG  PRO A   3     -13.505   8.859  27.840  0.00  0.00    +0.024 C 
ATOM     65  CD  PRO A   3     -13.138   8.596  26.386  0.00  0.00    +0.094 C 
ATOM     66  O   THR A   2     -15.631   7.470  24.016  0.00  0.00    -0.273 OA
BRANCH  60  67
ATOM     67  CA  THR A   2     -13.608   8.568  23.487  0.00  0.00    +0.176 C 
BRANCH  67  70
ATOM     68  C   PRO A   1     -12.859   6.573  22.536  0.00  0.00    +0.239 C 
ATOM     69  O   PRO A   1     -12.224   6.408  23.562  0.00  0.00    -0.274 OA
ATOM     70  N   THR A   2     -13.555   7.677  22.345  0.00  0.00    -0.295 N 
ATOM     71  H   THR A   2     -14.029   7.892  21.445  0.00  0.00    +0.150 HD
BRANCH  68  73
ATOM     72  N   PRO A   1     -12.608   6.035  20.065  0.00  0.00    -0.210 NA
ATOM     73  CA  PRO A   1     -12.891   5.527  21.411  0.00  0.00    +0.149 C 
ATOM     74  CB  PRO A   1     -11.814   4.433  21.516  0.00  0.00    +0.028 C 
ATOM     75  CG  PRO A   1     -10.624   4.932  20.701  0.00  0.00    +0.021 C 
ATOM     76  CD  PRO A   1     -11.300   5.637  19.541  0.00  0.00    +0.089 C 
ENDBRANCH  68  73
ENDBRANCH  67  70
BRANCH  67  77
ATOM     77  CB  THR A   2     -13.945   9.979  22.978  0.00  0.00    +0.137 C 
ATOM     78  CG2 THR A   2     -15.217  10.017  22.166  0.00  0.00    +0.034 C 
BRANCH  77  79
ATOM     79  OG1 THR A   2     -14.044  10.887  24.069  0.00  0.00    -0.382 OA
ATOM     80  HG1 THR A   2     -14.261  11.790  23.727  0.00  0.00    +0.210 HD
ENDBRANCH  77  79
ENDBRANCH  67  77
ENDBRANCH  60  67
ENDBRANCH  56  62
ENDBRANCH  55  58
BRANCH  55  81
ATOM     81  CB  VAL A   4     -17.085  12.123  27.324  0.00  0.00    +0.027 C 
ATOM     82  CG2 VAL A   4     -18.286  13.011  27.646  0.00  0.00    +0.002 C 
ATOM     83  CG1 VAL A   4     -15.833  12.982  27.237  0.00  0.00    +0.002 C 
ENDBRANCH  55  81
ENDBRANCH  51  55
ENDBRANCH  50  52
BRANCH  50  84
ATOM     84  CB  ASN A   5     -20.034  13.262  22.651  0.00  0.00    +0.114 C 
BRANCH  84  85
ATOM     85  CG  ASN A   5     -20.500  11.902  22.201  0.00  0.00    +0.222 C 
ATOM     86  ND2 ASN A   5     -21.669  11.502  22.664  0.00  0.00    -0.329 N 
ATOM     87 HD21 ASN A   5     -22.240  12.140  23.255  0.00  0.00    +0.145 HD
ATOM     88 HD22 ASN A   5     -22.019  10.549  22.438  0.00  0.00    +0.145 HD
ATOM     89  OD1 ASN A   5     -19.796  11.194  21.507  0.00  0.00    -0.275 OA
ENDBRANCH  84  85
ENDBRANCH  50  84
ENDBRANCH  46  50
ENDBRANCH   1  48
BRANCH   1  90
ATOM     90  CB  VAL A   6     -15.095  16.161  23.407  0.00  0.00    +0.027 C 
ATOM     91  CG2 VAL A   6     -14.987  15.755  24.866  0.00  0.00    +0.002 C 
ATOM     92  CG1 VAL A   6     -14.122  17.290  23.142  0.00  0.00    +0.002 C 
ENDBRANCH   1  90
TORSDOF 32
