REMARK  Name = ../refined-set-2016/2tmn/2tmn_pocket.pdb
REMARK  145 active torsions:
REMARK  status: ('A' for Active; 'I' for Inactive)
REMARK    1  A    between atoms: _1  and  _3
REMARK    2  A    between atoms: _3  and  _4
REMARK    3  A    between atoms: _3  and  _6
REMARK    4  A    between atoms: _6  and  _7
REMARK    5  A    between atoms: _12  and  _13
REMARK    6  A    between atoms: _15  and  _17
REMARK    7  A    between atoms: _17  and  _18
REMARK    8  A    between atoms: _17  and  _20
REMARK    9  A    between atoms: _20  and  _21
REMARK   10  A    between atoms: _26  and  _28
REMARK   11  A    between atoms: _28  and  _29
REMARK   12  A    between atoms: _28  and  _31
REMARK   13  A    between atoms: _31  and  _32
REMARK   14  A    between atoms: _37  and  _39
REMARK   15  A    between atoms: _39  and  _40
REMARK   16  A    between atoms: _43  and  _45
REMARK   17  A    between atoms: _45  and  _46
REMARK   18  A    between atoms: _45  and  _48
REMARK   19  A    between atoms: _48  and  _49
REMARK   20  A    between atoms: _55  and  _57
REMARK   21  A    between atoms: _57  and  _58
REMARK   22  A    between atoms: _57  and  _60
REMARK   23  A    between atoms: _60  and  _61
REMARK   24  A    between atoms: _71  and  _73
REMARK   25  A    between atoms: _73  and  _74
REMARK   26  A    between atoms: _73  and  _76
REMARK   27  A    between atoms: _76  and  _77
REMARK   28  A    between atoms: _82  and  _84
REMARK   29  A    between atoms: _84  and  _85
REMARK   30  A    between atoms: _84  and  _87
REMARK   31  A    between atoms: _90  and  _92
REMARK   32  A    between atoms: _92  and  _93
REMARK   33  A    between atoms: _92  and  _95
REMARK   34  A    between atoms: _95  and  _96
REMARK   35  A    between atoms: _101  and  _102
REMARK   36  A    between atoms: _104  and  _106
REMARK   37  A    between atoms: _106  and  _107
REMARK   38  A    between atoms: _109  and  _111
REMARK   39  A    between atoms: _111  and  _112
REMARK   40  A    between atoms: _111  and  _114
REMARK   41  A    between atoms: _114  and  _115
REMARK   42  A    between atoms: _121  and  _123
REMARK   43  A    between atoms: _123  and  _124
REMARK   44  A    between atoms: _123  and  _126
REMARK   45  A    between atoms: _126  and  _127
REMARK   46  A    between atoms: _130  and  _132
REMARK   47  A    between atoms: _132  and  _133
REMARK   48  A    between atoms: _132  and  _135
REMARK   49  A    between atoms: _135  and  _136
REMARK   50  A    between atoms: _138  and  _140
REMARK   51  A    between atoms: _140  and  _141
REMARK   52  A    between atoms: _143  and  _145
REMARK   53  A    between atoms: _145  and  _146
REMARK   54  A    between atoms: _145  and  _148
REMARK   55  A    between atoms: _148  and  _149
REMARK   56  A    between atoms: _152  and  _154
REMARK   57  A    between atoms: _154  and  _155
REMARK   58  A    between atoms: _154  and  _157
REMARK   59  A    between atoms: _160  and  _162
REMARK   60  A    between atoms: _162  and  _163
REMARK   61  A    between atoms: _162  and  _165
REMARK   62  A    between atoms: _168  and  _170
REMARK   63  A    between atoms: _170  and  _171
REMARK   64  A    between atoms: _174  and  _176
REMARK   65  A    between atoms: _176  and  _177
REMARK   66  A    between atoms: _176  and  _179
REMARK   67  A    between atoms: _179  and  _180
REMARK   68  A    between atoms: _184  and  ZN_365
REMARK   69  A    between atoms: _185  and  _187
REMARK   70  A    between atoms: _187  and  _188
REMARK   71  A    between atoms: _187  and  _190
REMARK   72  A    between atoms: _190  and  _191
REMARK   73  A    between atoms: _191  and  _192
REMARK   74  A    between atoms: _195  and  _197
REMARK   75  A    between atoms: _197  and  _198
REMARK   76  A    between atoms: _197  and  _200
REMARK   77  A    between atoms: _200  and  _201
REMARK   78  A    between atoms: _204  and  _206
REMARK   79  A    between atoms: _206  and  _207
REMARK   80  A    between atoms: _206  and  _209
REMARK   81  A    between atoms: _209  and  _210
REMARK   82  A    between atoms: _214  and  ZN_365
REMARK   83  A    between atoms: _215  and  _217
REMARK   84  A    between atoms: _217  and  _218
REMARK   85  A    between atoms: _217  and  _220
REMARK   86  A    between atoms: _220  and  _221
REMARK   87  A    between atoms: _226  and  _227
REMARK   88  A    between atoms: _229  and  _231
REMARK   89  A    between atoms: _231  and  _232
REMARK   90  A    between atoms: _231  and  _234
REMARK   91  A    between atoms: _234  and  _235
REMARK   92  A    between atoms: _240  and  _242
REMARK   93  A    between atoms: _242  and  _243
REMARK   94  A    between atoms: _242  and  _245
REMARK   95  A    between atoms: _245  and  _246
REMARK   96  A    between atoms: _246  and  _247
REMARK   97  A    between atoms: _247  and  _248
REMARK   98  A    between atoms: _248  and  ZN_365
REMARK   99  A    between atoms: _250  and  _252
REMARK  100  A    between atoms: _252  and  _253
REMARK  101  A    between atoms: _252  and  _255
REMARK  102  A    between atoms: _255  and  _256
REMARK  103  A    between atoms: _258  and  _260
REMARK  104  A    between atoms: _260  and  _261
REMARK  105  A    between atoms: _260  and  _263
REMARK  106  A    between atoms: _263  and  _264
REMARK  107  A    between atoms: _267  and  _269
REMARK  108  A    between atoms: _269  and  _270
REMARK  109  A    between atoms: _269  and  _272
REMARK  110  A    between atoms: _272  and  _273
REMARK  111  A    between atoms: _276  and  _278
REMARK  112  A    between atoms: _278  and  _279
REMARK  113  A    between atoms: _281  and  _283
REMARK  114  A    between atoms: _283  and  _284
REMARK  115  A    between atoms: _283  and  _286
REMARK  116  A    between atoms: _289  and  _291
REMARK  117  A    between atoms: _291  and  _292
REMARK  118  A    between atoms: _291  and  _294
REMARK  119  A    between atoms: _294  and  _295
REMARK  120  A    between atoms: _300  and  _301
REMARK  121  A    between atoms: _303  and  _305
REMARK  122  A    between atoms: _305  and  _306
REMARK  123  A    between atoms: _305  and  _308
REMARK  124  A    between atoms: _308  and  _309
REMARK  125  A    between atoms: _312  and  _314
REMARK  126  A    between atoms: _314  and  _315
REMARK  127  A    between atoms: _314  and  _317
REMARK  128  A    between atoms: _317  and  _318
REMARK  129  A    between atoms: _318  and  _319
REMARK  130  A    between atoms: _319  and  _320
REMARK  131  A    between atoms: _329  and  _331
REMARK  132  A    between atoms: _331  and  _332
REMARK  133  A    between atoms: _331  and  _334
REMARK  134  A    between atoms: _334  and  _335
REMARK  135  A    between atoms: _338  and  _340
REMARK  136  A    between atoms: _340  and  _341
REMARK  137  A    between atoms: _340  and  _343
REMARK  138  A    between atoms: _346  and  _348
REMARK  139  A    between atoms: _348  and  _349
REMARK  140  A    between atoms: _348  and  _351
REMARK  141  A    between atoms: _351  and  _352
REMARK  142  A    between atoms: _357  and  _359
REMARK  143  A    between atoms: _359  and  _360
REMARK  144  A    between atoms: _359  and  _362
REMARK  145  A    between atoms: _362  and  _363
REMARK                            x       y       z     vdW  Elec       q    Type
REMARK                         _______ _______ _______ _____ _____    ______ ____
ROOT
ATOM      1  C   ALA A   4      48.128  19.957  -3.233  0.00  0.00    +0.241 C 
ATOM      2  O   ALA A   4      48.933  19.169  -3.682  0.00  0.00    -0.273 OA
ATOM      3  N   PHE A   5      47.550  20.911  -3.988  0.00  0.00    -0.297 N 
ATOM      4  H   PHE A   5      46.861  21.525  -3.508  0.00  0.00    +0.150 HD
ENDROOT
BRANCH   1   5
ATOM      5  CA  ALA A   4      47.753  19.825  -1.764  0.00  0.00    +0.149 C 
ATOM      6  CB  ALA A   4      48.584  20.748  -0.892  0.00  0.00    +0.031 C 
BRANCH   5   9
ATOM      7  C   ASN A   3      47.344  17.583  -0.803  0.00  0.00    +0.241 C 
ATOM      8  O   ASN A   3      46.385  17.896  -0.074  0.00  0.00    -0.273 OA
ATOM      9  N   ALA A   4      48.019  18.413  -1.565  0.00  0.00    -0.297 N 
ATOM     10  H   ALA A   4      48.830  18.016  -2.080  0.00  0.00    +0.150 HD
BRANCH   7  11
ATOM     11  CA  ASN A   3      47.788  16.105  -0.821  0.00  0.00    +0.158 C 
BRANCH  11  13
ATOM     12  C   ASN A   2      47.494  14.129   0.461  0.00  0.00    +0.241 C 
ATOM     13  N   ASN A   3      47.085  15.329   0.129  0.00  0.00    -0.297 N 
ATOM     14  H   ASN A   3      46.228  15.717   0.572  0.00  0.00    +0.150 HD
ATOM     15  O   ASN A   2      48.485  13.617  -0.007  0.00  0.00    -0.273 OA
BRANCH  12  16
ATOM     16  CA  ASN A   2      46.709  13.384   1.490  0.00  0.00    +0.158 C 
BRANCH  16  19
ATOM     17  C   TYR A   1      44.405  14.155   1.691  0.00  0.00    +0.239 C 
ATOM     18  O   TYR A   1      44.670  15.112   2.477  0.00  0.00    -0.274 OA
ATOM     19  N   ASN A   2      45.306  13.293   1.180  0.00  0.00    -0.297 N 
ATOM     20  H   ASN A   2      44.978  12.539   0.543  0.00  0.00    +0.150 HD
BRANCH  17  21
ATOM     21  CA  TYR A   1      42.968  13.810   1.296  0.00  0.00    +0.149 C 
BRANCH  21  22
ATOM     22  N   TYR A   1      42.217  13.551   2.495  0.00  0.00    -0.238 NA
ATOM     23  H   TYR A   1      41.575  14.311   2.798  0.00  0.00    +0.142 HD
ENDBRANCH  21  22
BRANCH  21  24
ATOM     24  CB  TYR A   1      42.296  14.966   0.562  0.00  0.00    +0.053 C 
BRANCH  24  25
ATOM     25  CG  TYR A   1      42.827  15.053  -0.796  0.00  0.00    -0.020 A 
ATOM     26  CD2 TYR A   1      43.577  16.188  -1.114  0.00  0.00    -0.001 A 
ATOM     27  CE2 TYR A   1      44.108  16.288  -2.391  0.00  0.00    +0.036 A 
ATOM     28  CZ  TYR A   1      43.912  15.259  -3.298  0.00  0.00    +0.134 A 
ATOM     29  CE1 TYR A   1      43.161  14.115  -2.983  0.00  0.00    +0.036 A 
ATOM     30  CD1 TYR A   1      42.604  14.042  -1.709  0.00  0.00    -0.001 A 
BRANCH  28  31
ATOM     31  OH  TYR A   1      44.470  15.398  -4.532  0.00  0.00    -0.506 OA
ATOM     32  HH  TYR A   1      44.258  14.601  -5.080  0.00  0.00    +0.292 HD
ENDBRANCH  28  31
ENDBRANCH  24  25
ENDBRANCH  21  24
ENDBRANCH  17  21
ENDBRANCH  16  19
BRANCH  16  33
ATOM     33  CB  ASN A   2      47.390  11.964   1.790  0.00  0.00    +0.114 C 
BRANCH  33  34
ATOM     34  CG  ASN A   2      47.049  11.340   3.130  0.00  0.00    +0.222 C 
ATOM     35  OD1 ASN A   2      47.009  11.917   4.215  0.00  0.00    -0.275 OA
ATOM     36  ND2 ASN A   2      46.778  10.045   3.058  0.00  0.00    -0.329 N 
ATOM     37 HD21 ASN A   2      46.531   9.517   3.919  0.00  0.00    +0.145 HD
ATOM     38 HD22 ASN A   2      46.812   9.557   2.140  0.00  0.00    +0.145 HD
ENDBRANCH  33  34
ENDBRANCH  16  33
ENDBRANCH  12  16
ENDBRANCH  11  13
BRANCH  11  39
ATOM     39  CB  ASN A   3      47.542  15.504  -2.202  0.00  0.00    +0.114 C 
BRANCH  39  40
ATOM     40  CG  ASN A   3      48.689  15.759  -3.216  0.00  0.00    +0.222 C 
ATOM     41  OD1 ASN A   3      49.735  16.366  -3.114  0.00  0.00    -0.275 OA
ATOM     42  ND2 ASN A   3      48.708  15.013  -4.227  0.00  0.00    -0.329 N 
ATOM     43 HD21 ASN A   3      47.882  14.424  -4.454  0.00  0.00    +0.145 HD
ATOM     44 HD22 ASN A   3      49.550  14.985  -4.837  0.00  0.00    +0.145 HD
ENDBRANCH  39  40
ENDBRANCH  11  39
ENDBRANCH   7  11
ENDBRANCH   5   9
ENDBRANCH   1   5
BRANCH   3  45
ATOM     45  CA  PHE A   5      47.780  21.181  -5.401  0.00  0.00    +0.153 C 
BRANCH  45  46
ATOM     46  C   PHE A   5      47.300  22.568  -5.835  0.00  0.00    +0.241 C 
ATOM     47  O   PHE A   5      46.556  23.223  -5.191  0.00  0.00    -0.273 OA
ATOM     48  N   TRP A   6      47.787  22.968  -6.992  0.00  0.00    -0.297 N 
ATOM     49  H   TRP A   6      48.505  22.360  -7.434  0.00  0.00    +0.150 HD
BRANCH  48  50
ATOM     50  CA  TRP A   6      47.417  24.182  -7.715  0.00  0.00    +0.153 C 
BRANCH  50  51
ATOM     51  C   TRP A   6      46.597  23.649  -8.877  0.00  0.00    +0.241 C 
ATOM     52  N   ASN A   7      45.314  24.095  -9.023  0.00  0.00    -0.298 N 
ATOM     53  H   ASN A   7      44.957  24.817  -8.366  0.00  0.00    +0.150 HD
ATOM     54  O   TRP A   6      47.068  22.788  -9.604  0.00  0.00    -0.273 OA
BRANCH  52  55
ATOM     55  CA  ASN A   7      44.444  23.604 -10.048  0.00  0.00    +0.146 C 
BRANCH  55  56
ATOM     56  C   ASN A   7      44.368  24.427 -11.345  0.00  0.00    +0.227 C 
ATOM     57  O   ASN A   7      43.412  24.180 -12.070  0.00  0.00    -0.286 OA
ENDBRANCH  55  56
BRANCH  55  58
ATOM     58  CB  ASN A   7      43.083  23.283  -9.499  0.00  0.00    +0.112 C 
BRANCH  58  59
ATOM     59  CG  ASN A   7      42.115  24.481  -9.393  0.00  0.00    +0.222 C 
ATOM     60  ND2 ASN A   7      40.823  24.274  -9.263  0.00  0.00    -0.329 N 
ATOM     61 HD21 ASN A   7      40.172  25.082  -9.191  0.00  0.00    +0.145 HD
ATOM     62 HD22 ASN A   7      40.452  23.303  -9.232  0.00  0.00    +0.145 HD
ATOM     63  OD1 ASN A   7      42.594  25.587  -9.434  0.00  0.00    -0.275 OA
ENDBRANCH  58  59
ENDBRANCH  55  58
ENDBRANCH  52  55
ENDBRANCH  50  51
BRANCH  50  64
ATOM     64  CB  TRP A   6      48.627  24.959  -8.225  0.00  0.00    +0.057 C 
BRANCH  64  65
ATOM     65  CG  TRP A   6      48.288  25.995  -9.216  0.00  0.00    -0.002 A 
ATOM     66  CD2 TRP A   6      47.782  27.325  -8.973  0.00  0.00    +0.013 A 
ATOM     67  CE3 TRP A   6      47.421  28.011  -7.798  0.00  0.00    +0.001 A 
ATOM     68  CZ3 TRP A   6      46.986  29.338  -7.899  0.00  0.00    +0.000 A 
ATOM     69  CH2 TRP A   6      46.809  29.887  -9.188  0.00  0.00    +0.001 A 
ATOM     70  CZ2 TRP A   6      47.165  29.277 -10.344  0.00  0.00    +0.017 A 
ATOM     71  CE2 TRP A   6      47.651  27.930 -10.248  0.00  0.00    +0.056 A 
ATOM     72  NE1 TRP A   6      48.083  27.039 -11.220  0.00  0.00    -0.352 N 
ATOM     73  HE1 TRP A   6      48.088  27.203 -12.247  0.00  0.00    +0.166 HD
ATOM     74  CD1 TRP A   6      48.511  25.876 -10.563  0.00  0.00    +0.068 A 
ENDBRANCH  64  65
ENDBRANCH  50  64
ENDBRANCH  48  50
ENDBRANCH  45  46
BRANCH  45  75
ATOM     75  CB  PHE A   5      47.087  20.112  -6.320  0.00  0.00    +0.055 C 
BRANCH  75  76
ATOM     76  CG  PHE A   5      45.565  19.917  -6.180  0.00  0.00    -0.020 A 
ATOM     77  CD2 PHE A   5      45.026  19.149  -5.147  0.00  0.00    -0.004 A 
ATOM     78  CE2 PHE A   5      43.655  18.899  -5.004  0.00  0.00    -0.000 A 
ATOM     79  CZ  PHE A   5      42.773  19.455  -5.934  0.00  0.00    -0.000 A 
ATOM     80  CE1 PHE A   5      43.274  20.212  -6.992  0.00  0.00    -0.000 A 
ATOM     81  CD1 PHE A   5      44.652  20.441  -7.111  0.00  0.00    -0.004 A 
ENDBRANCH  75  76
ENDBRANCH  45  75
ENDBRANCH   3  45
TORSDOF 27
REMARK  Name = ../refined-set-2016/2tmn/2tmn_pocket.pdb
REMARK  145 active torsions:
REMARK  status: ('A' for Active; 'I' for Inactive)
REMARK    1  A    between atoms: _1  and  _3
REMARK    2  A    between atoms: _3  and  _4
REMARK    3  A    between atoms: _3  and  _6
REMARK    4  A    between atoms: _6  and  _7
REMARK    5  A    between atoms: _12  and  _13
REMARK    6  A    between atoms: _15  and  _17
REMARK    7  A    between atoms: _17  and  _18
REMARK    8  A    between atoms: _17  and  _20
REMARK    9  A    between atoms: _20  and  _21
REMARK   10  A    between atoms: _26  and  _28
REMARK   11  A    between atoms: _28  and  _29
REMARK   12  A    between atoms: _28  and  _31
REMARK   13  A    between atoms: _31  and  _32
REMARK   14  A    between atoms: _37  and  _39
REMARK   15  A    between atoms: _39  and  _40
REMARK   16  A    between atoms: _43  and  _45
REMARK   17  A    between atoms: _45  and  _46
REMARK   18  A    between atoms: _45  and  _48
REMARK   19  A    between atoms: _48  and  _49
REMARK   20  A    between atoms: _55  and  _57
REMARK   21  A    between atoms: _57  and  _58
REMARK   22  A    between atoms: _57  and  _60
REMARK   23  A    between atoms: _60  and  _61
REMARK   24  A    between atoms: _71  and  _73
REMARK   25  A    between atoms: _73  and  _74
REMARK   26  A    between atoms: _73  and  _76
REMARK   27  A    between atoms: _76  and  _77
REMARK   28  A    between atoms: _82  and  _84
REMARK   29  A    between atoms: _84  and  _85
REMARK   30  A    between atoms: _84  and  _87
REMARK   31  A    between atoms: _90  and  _92
REMARK   32  A    between atoms: _92  and  _93
REMARK   33  A    between atoms: _92  and  _95
REMARK   34  A    between atoms: _95  and  _96
REMARK   35  A    between atoms: _101  and  _102
REMARK   36  A    between atoms: _104  and  _106
REMARK   37  A    between atoms: _106  and  _107
REMARK   38  A    between atoms: _109  and  _111
REMARK   39  A    between atoms: _111  and  _112
REMARK   40  A    between atoms: _111  and  _114
REMARK   41  A    between atoms: _114  and  _115
REMARK   42  A    between atoms: _121  and  _123
REMARK   43  A    between atoms: _123  and  _124
REMARK   44  A    between atoms: _123  and  _126
REMARK   45  A    between atoms: _126  and  _127
REMARK   46  A    between atoms: _130  and  _132
REMARK   47  A    between atoms: _132  and  _133
REMARK   48  A    between atoms: _132  and  _135
REMARK   49  A    between atoms: _135  and  _136
REMARK   50  A    between atoms: _138  and  _140
REMARK   51  A    between atoms: _140  and  _141
REMARK   52  A    between atoms: _143  and  _145
REMARK   53  A    between atoms: _145  and  _146
REMARK   54  A    between atoms: _145  and  _148
REMARK   55  A    between atoms: _148  and  _149
REMARK   56  A    between atoms: _152  and  _154
REMARK   57  A    between atoms: _154  and  _155
REMARK   58  A    between atoms: _154  and  _157
REMARK   59  A    between atoms: _160  and  _162
REMARK   60  A    between atoms: _162  and  _163
REMARK   61  A    between atoms: _162  and  _165
REMARK   62  A    between atoms: _168  and  _170
REMARK   63  A    between atoms: _170  and  _171
REMARK   64  A    between atoms: _174  and  _176
REMARK   65  A    between atoms: _176  and  _177
REMARK   66  A    between atoms: _176  and  _179
REMARK   67  A    between atoms: _179  and  _180
REMARK   68  A    between atoms: _184  and  ZN_365
REMARK   69  A    between atoms: _185  and  _187
REMARK   70  A    between atoms: _187  and  _188
REMARK   71  A    between atoms: _187  and  _190
REMARK   72  A    between atoms: _190  and  _191
REMARK   73  A    between atoms: _191  and  _192
REMARK   74  A    between atoms: _195  and  _197
REMARK   75  A    between atoms: _197  and  _198
REMARK   76  A    between atoms: _197  and  _200
REMARK   77  A    between atoms: _200  and  _201
REMARK   78  A    between atoms: _204  and  _206
REMARK   79  A    between atoms: _206  and  _207
REMARK   80  A    between atoms: _206  and  _209
REMARK   81  A    between atoms: _209  and  _210
REMARK   82  A    between atoms: _214  and  ZN_365
REMARK   83  A    between atoms: _215  and  _217
REMARK   84  A    between atoms: _217  and  _218
REMARK   85  A    between atoms: _217  and  _220
REMARK   86  A    between atoms: _220  and  _221
REMARK   87  A    between atoms: _226  and  _227
REMARK   88  A    between atoms: _229  and  _231
REMARK   89  A    between atoms: _231  and  _232
REMARK   90  A    between atoms: _231  and  _234
REMARK   91  A    between atoms: _234  and  _235
REMARK   92  A    between atoms: _240  and  _242
REMARK   93  A    between atoms: _242  and  _243
REMARK   94  A    between atoms: _242  and  _245
REMARK   95  A    between atoms: _245  and  _246
REMARK   96  A    between atoms: _246  and  _247
REMARK   97  A    between atoms: _247  and  _248
REMARK   98  A    between atoms: _248  and  ZN_365
REMARK   99  A    between atoms: _250  and  _252
REMARK  100  A    between atoms: _252  and  _253
REMARK  101  A    between atoms: _252  and  _255
REMARK  102  A    between atoms: _255  and  _256
REMARK  103  A    between atoms: _258  and  _260
REMARK  104  A    between atoms: _260  and  _261
REMARK  105  A    between atoms: _260  and  _263
REMARK  106  A    between atoms: _263  and  _264
REMARK  107  A    between atoms: _267  and  _269
REMARK  108  A    between atoms: _269  and  _270
REMARK  109  A    between atoms: _269  and  _272
REMARK  110  A    between atoms: _272  and  _273
REMARK  111  A    between atoms: _276  and  _278
REMARK  112  A    between atoms: _278  and  _279
REMARK  113  A    between atoms: _281  and  _283
REMARK  114  A    between atoms: _283  and  _284
REMARK  115  A    between atoms: _283  and  _286
REMARK  116  A    between atoms: _289  and  _291
REMARK  117  A    between atoms: _291  and  _292
REMARK  118  A    between atoms: _291  and  _294
REMARK  119  A    between atoms: _294  and  _295
REMARK  120  A    between atoms: _300  and  _301
REMARK  121  A    between atoms: _303  and  _305
REMARK  122  A    between atoms: _305  and  _306
REMARK  123  A    between atoms: _305  and  _308
REMARK  124  A    between atoms: _308  and  _309
REMARK  125  A    between atoms: _312  and  _314
REMARK  126  A    between atoms: _314  and  _315
REMARK  127  A    between atoms: _314  and  _317
REMARK  128  A    between atoms: _317  and  _318
REMARK  129  A    between atoms: _318  and  _319
REMARK  130  A    between atoms: _319  and  _320
REMARK  131  A    between atoms: _329  and  _331
REMARK  132  A    between atoms: _331  and  _332
REMARK  133  A    between atoms: _331  and  _334
REMARK  134  A    between atoms: _334  and  _335
REMARK  135  A    between atoms: _338  and  _340
REMARK  136  A    between atoms: _340  and  _341
REMARK  137  A    between atoms: _340  and  _343
REMARK  138  A    between atoms: _346  and  _348
REMARK  139  A    between atoms: _348  and  _349
REMARK  140  A    between atoms: _348  and  _351
REMARK  141  A    between atoms: _351  and  _352
REMARK  142  A    between atoms: _357  and  _359
REMARK  143  A    between atoms: _359  and  _360
REMARK  144  A    between atoms: _359  and  _362
REMARK  145  A    between atoms: _362  and  _363
REMARK                            x       y       z     vdW  Elec       q    Type
REMARK                         _______ _______ _______ _____ _____    ______ ____
ROOT
ATOM      1  CA  TYR A   2      44.643  21.638   0.631  0.00  0.00    +0.153 C 
ENDROOT
BRANCH   1   3
ATOM      2  C   VAL A   1      44.416  22.488  -1.660  0.00  0.00    +0.238 C 
ATOM      3  N   TYR A   2      43.903  22.401  -0.442  0.00  0.00    -0.297 N 
ATOM      4  H   TYR A   2      42.994  22.857  -0.225  0.00  0.00    +0.150 HD
ATOM      5  O   VAL A   1      45.502  21.969  -2.045  0.00  0.00    -0.274 OA
BRANCH   2   6
ATOM      6  CA  VAL A   1      43.689  23.354  -2.639  0.00  0.00    +0.145 C 
BRANCH   6   7
ATOM      7  CB  VAL A   1      43.058  22.449  -3.732  0.00  0.00    +0.025 C 
ATOM      8  CG2 VAL A   1      41.991  21.550  -3.059  0.00  0.00    +0.002 C 
ATOM      9  CG1 VAL A   1      42.491  23.341  -4.865  0.00  0.00    +0.002 C 
ENDBRANCH   6   7
BRANCH   6  10
ATOM     10  N   VAL A   1      44.602  24.252  -3.316  0.00  0.00    -0.238 NA
ATOM     11  H   VAL A   1      45.498  23.851  -3.659  0.00  0.00    +0.142 HD
ENDBRANCH   6  10
ENDBRANCH   2   6
ENDBRANCH   1   3
BRANCH   1  12
ATOM     12  C   TYR A   2      43.770  20.610   1.317  0.00  0.00    +0.241 C 
ATOM     13  O   TYR A   2      42.685  20.952   1.762  0.00  0.00    -0.273 OA
ATOM     14  N   GLY A   3      44.265  19.335   1.367  0.00  0.00    -0.296 N 
ATOM     15  H   GLY A   3      45.188  19.153   0.923  0.00  0.00    +0.150 HD
BRANCH  14  16
ATOM     16  CA  GLY A   3      43.597  18.242   1.988  0.00  0.00    +0.163 C 
BRANCH  16  17
ATOM     17  C   GLY A   3      43.876  18.400   3.489  0.00  0.00    +0.229 C 
ATOM     18  O   GLY A   3      44.727  19.192   3.846  0.00  0.00    -0.286 OA
ENDBRANCH  16  17
ENDBRANCH  14  16
ENDBRANCH   1  12
BRANCH   1  19
ATOM     19  CB  TYR A   2      45.106  22.541   1.825  0.00  0.00    +0.055 C 
BRANCH  19  20
ATOM     20  CG  TYR A   2      46.059  23.642   1.328  0.00  0.00    -0.020 A 
ATOM     21  CD2 TYR A   2      47.415  23.389   1.165  0.00  0.00    -0.001 A 
ATOM     22  CE2 TYR A   2      48.368  24.276   0.653  0.00  0.00    +0.036 A 
ATOM     23  CZ  TYR A   2      47.881  25.542   0.303  0.00  0.00    +0.134 A 
ATOM     24  CE1 TYR A   2      46.503  25.795   0.390  0.00  0.00    +0.036 A 
ATOM     25  CD1 TYR A   2      45.574  24.913   0.914  0.00  0.00    -0.001 A 
BRANCH  23  26
ATOM     26  OH  TYR A   2      48.768  26.480  -0.224  0.00  0.00    -0.506 OA
ATOM     27  HH  TYR A   2      48.281  27.319  -0.421  0.00  0.00    +0.292 HD
ENDBRANCH  23  26
ENDBRANCH  19  20
ENDBRANCH   1  19
TORSDOF 10
REMARK  Name = ../refined-set-2016/2tmn/2tmn_pocket.pdb
REMARK  145 active torsions:
REMARK  status: ('A' for Active; 'I' for Inactive)
REMARK    1  A    between atoms: _1  and  _3
REMARK    2  A    between atoms: _3  and  _4
REMARK    3  A    between atoms: _3  and  _6
REMARK    4  A    between atoms: _6  and  _7
REMARK    5  A    between atoms: _12  and  _13
REMARK    6  A    between atoms: _15  and  _17
REMARK    7  A    between atoms: _17  and  _18
REMARK    8  A    between atoms: _17  and  _20
REMARK    9  A    between atoms: _20  and  _21
REMARK   10  A    between atoms: _26  and  _28
REMARK   11  A    between atoms: _28  and  _29
REMARK   12  A    between atoms: _28  and  _31
REMARK   13  A    between atoms: _31  and  _32
REMARK   14  A    between atoms: _37  and  _39
REMARK   15  A    between atoms: _39  and  _40
REMARK   16  A    between atoms: _43  and  _45
REMARK   17  A    between atoms: _45  and  _46
REMARK   18  A    between atoms: _45  and  _48
REMARK   19  A    between atoms: _48  and  _49
REMARK   20  A    between atoms: _55  and  _57
REMARK   21  A    between atoms: _57  and  _58
REMARK   22  A    between atoms: _57  and  _60
REMARK   23  A    between atoms: _60  and  _61
REMARK   24  A    between atoms: _71  and  _73
REMARK   25  A    between atoms: _73  and  _74
REMARK   26  A    between atoms: _73  and  _76
REMARK   27  A    between atoms: _76  and  _77
REMARK   28  A    between atoms: _82  and  _84
REMARK   29  A    between atoms: _84  and  _85
REMARK   30  A    between atoms: _84  and  _87
REMARK   31  A    between atoms: _90  and  _92
REMARK   32  A    between atoms: _92  and  _93
REMARK   33  A    between atoms: _92  and  _95
REMARK   34  A    between atoms: _95  and  _96
REMARK   35  A    between atoms: _101  and  _102
REMARK   36  A    between atoms: _104  and  _106
REMARK   37  A    between atoms: _106  and  _107
REMARK   38  A    between atoms: _109  and  _111
REMARK   39  A    between atoms: _111  and  _112
REMARK   40  A    between atoms: _111  and  _114
REMARK   41  A    between atoms: _114  and  _115
REMARK   42  A    between atoms: _121  and  _123
REMARK   43  A    between atoms: _123  and  _124
REMARK   44  A    between atoms: _123  and  _126
REMARK   45  A    between atoms: _126  and  _127
REMARK   46  A    between atoms: _130  and  _132
REMARK   47  A    between atoms: _132  and  _133
REMARK   48  A    between atoms: _132  and  _135
REMARK   49  A    between atoms: _135  and  _136
REMARK   50  A    between atoms: _138  and  _140
REMARK   51  A    between atoms: _140  and  _141
REMARK   52  A    between atoms: _143  and  _145
REMARK   53  A    between atoms: _145  and  _146
REMARK   54  A    between atoms: _145  and  _148
REMARK   55  A    between atoms: _148  and  _149
REMARK   56  A    between atoms: _152  and  _154
REMARK   57  A    between atoms: _154  and  _155
REMARK   58  A    between atoms: _154  and  _157
REMARK   59  A    between atoms: _160  and  _162
REMARK   60  A    between atoms: _162  and  _163
REMARK   61  A    between atoms: _162  and  _165
REMARK   62  A    between atoms: _168  and  _170
REMARK   63  A    between atoms: _170  and  _171
REMARK   64  A    between atoms: _174  and  _176
REMARK   65  A    between atoms: _176  and  _177
REMARK   66  A    between atoms: _176  and  _179
REMARK   67  A    between atoms: _179  and  _180
REMARK   68  A    between atoms: _184  and  ZN_365
REMARK   69  A    between atoms: _185  and  _187
REMARK   70  A    between atoms: _187  and  _188
REMARK   71  A    between atoms: _187  and  _190
REMARK   72  A    between atoms: _190  and  _191
REMARK   73  A    between atoms: _191  and  _192
REMARK   74  A    between atoms: _195  and  _197
REMARK   75  A    between atoms: _197  and  _198
REMARK   76  A    between atoms: _197  and  _200
REMARK   77  A    between atoms: _200  and  _201
REMARK   78  A    between atoms: _204  and  _206
REMARK   79  A    between atoms: _206  and  _207
REMARK   80  A    between atoms: _206  and  _209
REMARK   81  A    between atoms: _209  and  _210
REMARK   82  A    between atoms: _214  and  ZN_365
REMARK   83  A    between atoms: _215  and  _217
REMARK   84  A    between atoms: _217  and  _218
REMARK   85  A    between atoms: _217  and  _220
REMARK   86  A    between atoms: _220  and  _221
REMARK   87  A    between atoms: _226  and  _227
REMARK   88  A    between atoms: _229  and  _231
REMARK   89  A    between atoms: _231  and  _232
REMARK   90  A    between atoms: _231  and  _234
REMARK   91  A    between atoms: _234  and  _235
REMARK   92  A    between atoms: _240  and  _242
REMARK   93  A    between atoms: _242  and  _243
REMARK   94  A    between atoms: _242  and  _245
REMARK   95  A    between atoms: _245  and  _246
REMARK   96  A    between atoms: _246  and  _247
REMARK   97  A    between atoms: _247  and  _248
REMARK   98  A    between atoms: _248  and  ZN_365
REMARK   99  A    between atoms: _250  and  _252
REMARK  100  A    between atoms: _252  and  _253
REMARK  101  A    between atoms: _252  and  _255
REMARK  102  A    between atoms: _255  and  _256
REMARK  103  A    between atoms: _258  and  _260
REMARK  104  A    between atoms: _260  and  _261
REMARK  105  A    between atoms: _260  and  _263
REMARK  106  A    between atoms: _263  and  _264
REMARK  107  A    between atoms: _267  and  _269
REMARK  108  A    between atoms: _269  and  _270
REMARK  109  A    between atoms: _269  and  _272
REMARK  110  A    between atoms: _272  and  _273
REMARK  111  A    between atoms: _276  and  _278
REMARK  112  A    between atoms: _278  and  _279
REMARK  113  A    between atoms: _281  and  _283
REMARK  114  A    between atoms: _283  and  _284
REMARK  115  A    between atoms: _283  and  _286
REMARK  116  A    between atoms: _289  and  _291
REMARK  117  A    between atoms: _291  and  _292
REMARK  118  A    between atoms: _291  and  _294
REMARK  119  A    between atoms: _294  and  _295
REMARK  120  A    between atoms: _300  and  _301
REMARK  121  A    between atoms: _303  and  _305
REMARK  122  A    between atoms: _305  and  _306
REMARK  123  A    between atoms: _305  and  _308
REMARK  124  A    between atoms: _308  and  _309
REMARK  125  A    between atoms: _312  and  _314
REMARK  126  A    between atoms: _314  and  _315
REMARK  127  A    between atoms: _314  and  _317
REMARK  128  A    between atoms: _317  and  _318
REMARK  129  A    between atoms: _318  and  _319
REMARK  130  A    between atoms: _319  and  _320
REMARK  131  A    between atoms: _329  and  _331
REMARK  132  A    between atoms: _331  and  _332
REMARK  133  A    between atoms: _331  and  _334
REMARK  134  A    between atoms: _334  and  _335
REMARK  135  A    between atoms: _338  and  _340
REMARK  136  A    between atoms: _340  and  _341
REMARK  137  A    between atoms: _340  and  _343
REMARK  138  A    between atoms: _346  and  _348
REMARK  139  A    between atoms: _348  and  _349
REMARK  140  A    between atoms: _348  and  _351
REMARK  141  A    between atoms: _351  and  _352
REMARK  142  A    between atoms: _357  and  _359
REMARK  143  A    between atoms: _359  and  _360
REMARK  144  A    between atoms: _359  and  _362
REMARK  145  A    between atoms: _362  and  _363
REMARK                            x       y       z     vdW  Elec       q    Type
REMARK                         _______ _______ _______ _____ _____    ______ ____
ROOT
ATOM      1  CB  PHE A   1      49.382  14.295   5.572  0.00  0.00    +0.051 C 
ENDROOT
BRANCH   1   2
ATOM      2  CG  PHE A   1      50.412  14.415   4.492  0.00  0.00    -0.020 A 
ATOM      3  CD2 PHE A   1      51.445  15.347   4.581  0.00  0.00    -0.004 A 
ATOM      4  CE2 PHE A   1      52.432  15.376   3.594  0.00  0.00    -0.000 A 
ATOM      5  CZ  PHE A   1      52.400  14.508   2.497  0.00  0.00    -0.000 A 
ATOM      6  CE1 PHE A   1      51.384  13.564   2.405  0.00  0.00    -0.000 A 
ATOM      7  CD1 PHE A   1      50.411  13.549   3.412  0.00  0.00    -0.004 A 
ENDBRANCH   1   2
BRANCH   1   8
ATOM      8  CA  PHE A   1      49.842  13.791   6.975  0.00  0.00    +0.137 C 
BRANCH   8   9
ATOM      9  N   PHE A   1      49.687  12.330   7.009  0.00  0.00    -0.239 NA
ATOM     10  H   PHE A   1      48.764  11.918   7.251  0.00  0.00    +0.142 HD
ENDBRANCH   8   9
BRANCH   8  11
ATOM     11  C   PHE A   1      48.791  14.337   7.873  0.00  0.00    +0.224 C 
ATOM     12  O   PHE A   1      47.769  13.679   8.100  0.00  0.00    -0.287 OA
ENDBRANCH   8  11
ENDBRANCH   1   8
TORSDOF 4
REMARK  Name = ../refined-set-2016/2tmn/2tmn_pocket.pdb
REMARK  145 active torsions:
REMARK  status: ('A' for Active; 'I' for Inactive)
REMARK    1  A    between atoms: _1  and  _3
REMARK    2  A    between atoms: _3  and  _4
REMARK    3  A    between atoms: _3  and  _6
REMARK    4  A    between atoms: _6  and  _7
REMARK    5  A    between atoms: _12  and  _13
REMARK    6  A    between atoms: _15  and  _17
REMARK    7  A    between atoms: _17  and  _18
REMARK    8  A    between atoms: _17  and  _20
REMARK    9  A    between atoms: _20  and  _21
REMARK   10  A    between atoms: _26  and  _28
REMARK   11  A    between atoms: _28  and  _29
REMARK   12  A    between atoms: _28  and  _31
REMARK   13  A    between atoms: _31  and  _32
REMARK   14  A    between atoms: _37  and  _39
REMARK   15  A    between atoms: _39  and  _40
REMARK   16  A    between atoms: _43  and  _45
REMARK   17  A    between atoms: _45  and  _46
REMARK   18  A    between atoms: _45  and  _48
REMARK   19  A    between atoms: _48  and  _49
REMARK   20  A    between atoms: _55  and  _57
REMARK   21  A    between atoms: _57  and  _58
REMARK   22  A    between atoms: _57  and  _60
REMARK   23  A    between atoms: _60  and  _61
REMARK   24  A    between atoms: _71  and  _73
REMARK   25  A    between atoms: _73  and  _74
REMARK   26  A    between atoms: _73  and  _76
REMARK   27  A    between atoms: _76  and  _77
REMARK   28  A    between atoms: _82  and  _84
REMARK   29  A    between atoms: _84  and  _85
REMARK   30  A    between atoms: _84  and  _87
REMARK   31  A    between atoms: _90  and  _92
REMARK   32  A    between atoms: _92  and  _93
REMARK   33  A    between atoms: _92  and  _95
REMARK   34  A    between atoms: _95  and  _96
REMARK   35  A    between atoms: _101  and  _102
REMARK   36  A    between atoms: _104  and  _106
REMARK   37  A    between atoms: _106  and  _107
REMARK   38  A    between atoms: _109  and  _111
REMARK   39  A    between atoms: _111  and  _112
REMARK   40  A    between atoms: _111  and  _114
REMARK   41  A    between atoms: _114  and  _115
REMARK   42  A    between atoms: _121  and  _123
REMARK   43  A    between atoms: _123  and  _124
REMARK   44  A    between atoms: _123  and  _126
REMARK   45  A    between atoms: _126  and  _127
REMARK   46  A    between atoms: _130  and  _132
REMARK   47  A    between atoms: _132  and  _133
REMARK   48  A    between atoms: _132  and  _135
REMARK   49  A    between atoms: _135  and  _136
REMARK   50  A    between atoms: _138  and  _140
REMARK   51  A    between atoms: _140  and  _141
REMARK   52  A    between atoms: _143  and  _145
REMARK   53  A    between atoms: _145  and  _146
REMARK   54  A    between atoms: _145  and  _148
REMARK   55  A    between atoms: _148  and  _149
REMARK   56  A    between atoms: _152  and  _154
REMARK   57  A    between atoms: _154  and  _155
REMARK   58  A    between atoms: _154  and  _157
REMARK   59  A    between atoms: _160  and  _162
REMARK   60  A    between atoms: _162  and  _163
REMARK   61  A    between atoms: _162  and  _165
REMARK   62  A    between atoms: _168  and  _170
REMARK   63  A    between atoms: _170  and  _171
REMARK   64  A    between atoms: _174  and  _176
REMARK   65  A    between atoms: _176  and  _177
REMARK   66  A    between atoms: _176  and  _179
REMARK   67  A    between atoms: _179  and  _180
REMARK   68  A    between atoms: _184  and  ZN_365
REMARK   69  A    between atoms: _185  and  _187
REMARK   70  A    between atoms: _187  and  _188
REMARK   71  A    between atoms: _187  and  _190
REMARK   72  A    between atoms: _190  and  _191
REMARK   73  A    between atoms: _191  and  _192
REMARK   74  A    between atoms: _195  and  _197
REMARK   75  A    between atoms: _197  and  _198
REMARK   76  A    between atoms: _197  and  _200
REMARK   77  A    between atoms: _200  and  _201
REMARK   78  A    between atoms: _204  and  _206
REMARK   79  A    between atoms: _206  and  _207
REMARK   80  A    between atoms: _206  and  _209
REMARK   81  A    between atoms: _209  and  _210
REMARK   82  A    between atoms: _214  and  ZN_365
REMARK   83  A    between atoms: _215  and  _217
REMARK   84  A    between atoms: _217  and  _218
REMARK   85  A    between atoms: _217  and  _220
REMARK   86  A    between atoms: _220  and  _221
REMARK   87  A    between atoms: _226  and  _227
REMARK   88  A    between atoms: _229  and  _231
REMARK   89  A    between atoms: _231  and  _232
REMARK   90  A    between atoms: _231  and  _234
REMARK   91  A    between atoms: _234  and  _235
REMARK   92  A    between atoms: _240  and  _242
REMARK   93  A    between atoms: _242  and  _243
REMARK   94  A    between atoms: _242  and  _245
REMARK   95  A    between atoms: _245  and  _246
REMARK   96  A    between atoms: _246  and  _247
REMARK   97  A    between atoms: _247  and  _248
REMARK   98  A    between atoms: _248  and  ZN_365
REMARK   99  A    between atoms: _250  and  _252
REMARK  100  A    between atoms: _252  and  _253
REMARK  101  A    between atoms: _252  and  _255
REMARK  102  A    between atoms: _255  and  _256
REMARK  103  A    between atoms: _258  and  _260
REMARK  104  A    between atoms: _260  and  _261
REMARK  105  A    between atoms: _260  and  _263
REMARK  106  A    between atoms: _263  and  _264
REMARK  107  A    between atoms: _267  and  _269
REMARK  108  A    between atoms: _269  and  _270
REMARK  109  A    between atoms: _269  and  _272
REMARK  110  A    between atoms: _272  and  _273
REMARK  111  A    between atoms: _276  and  _278
REMARK  112  A    between atoms: _278  and  _279
REMARK  113  A    between atoms: _281  and  _283
REMARK  114  A    between atoms: _283  and  _284
REMARK  115  A    between atoms: _283  and  _286
REMARK  116  A    between atoms: _289  and  _291
REMARK  117  A    between atoms: _291  and  _292
REMARK  118  A    between atoms: _291  and  _294
REMARK  119  A    between atoms: _294  and  _295
REMARK  120  A    between atoms: _300  and  _301
REMARK  121  A    between atoms: _303  and  _305
REMARK  122  A    between atoms: _305  and  _306
REMARK  123  A    between atoms: _305  and  _308
REMARK  124  A    between atoms: _308  and  _309
REMARK  125  A    between atoms: _312  and  _314
REMARK  126  A    between atoms: _314  and  _315
REMARK  127  A    between atoms: _314  and  _317
REMARK  128  A    between atoms: _317  and  _318
REMARK  129  A    between atoms: _318  and  _319
REMARK  130  A    between atoms: _319  and  _320
REMARK  131  A    between atoms: _329  and  _331
REMARK  132  A    between atoms: _331  and  _332
REMARK  133  A    between atoms: _331  and  _334
REMARK  134  A    between atoms: _334  and  _335
REMARK  135  A    between atoms: _338  and  _340
REMARK  136  A    between atoms: _340  and  _341
REMARK  137  A    between atoms: _340  and  _343
REMARK  138  A    between atoms: _346  and  _348
REMARK  139  A    between atoms: _348  and  _349
REMARK  140  A    between atoms: _348  and  _351
REMARK  141  A    between atoms: _351  and  _352
REMARK  142  A    between atoms: _357  and  _359
REMARK  143  A    between atoms: _359  and  _360
REMARK  144  A    between atoms: _359  and  _362
REMARK  145  A    between atoms: _362  and  _363
REMARK                            x       y       z     vdW  Elec       q    Type
REMARK                         _______ _______ _______ _____ _____    ______ ____
ROOT
ATOM      1  C   LEU A   1      49.234  21.767   4.493  0.00  0.00    +0.238 C 
ATOM      2  N   SER A   2      48.324  22.703   4.783  0.00  0.00    -0.296 N 
ATOM      3  H   SER A   2      47.344  22.406   4.963  0.00  0.00    +0.150 HD
ATOM      4  O   LEU A   1      50.403  22.051   4.265  0.00  0.00    -0.274 OA
ENDROOT
BRANCH   1   5
ATOM      5  CA  LEU A   1      48.755  20.299   4.462  0.00  0.00    +0.145 C 
BRANCH   5   6
ATOM      6  N   LEU A   1      47.632  19.855   5.273  0.00  0.00    -0.238 NA
ATOM      7  H   LEU A   1      46.831  19.386   4.803  0.00  0.00    +0.142 HD
ENDBRANCH   5   6
BRANCH   5   8
ATOM      8  CB  LEU A   1      48.672  19.678   3.093  0.00  0.00    +0.026 C 
BRANCH   8   9
ATOM      9  CG  LEU A   1      48.914  18.166   3.240  0.00  0.00    +0.002 C 
ATOM     10  CD2 LEU A   1      47.670  17.363   3.616  0.00  0.00    +0.000 C 
ATOM     11  CD1 LEU A   1      49.662  17.851   1.992  0.00  0.00    +0.000 C 
ENDBRANCH   8   9
ENDBRANCH   5   8
ENDBRANCH   1   5
BRANCH   2  12
ATOM     12  CA  SER A   2      48.653  24.138   4.858  0.00  0.00    +0.166 C 
BRANCH  12  13
ATOM     13  C   SER A   2      49.485  24.516   6.076  0.00  0.00    +0.229 C 
ATOM     14  O   SER A   2      49.897  25.624   6.240  0.00  0.00    -0.286 OA
ENDBRANCH  12  13
BRANCH  12  15
ATOM     15  CB  SER A   2      47.297  24.923   4.806  0.00  0.00    +0.165 C 
BRANCH  15  16
ATOM     16  OG  SER A   2      46.549  24.658   5.959  0.00  0.00    -0.380 OA
ATOM     17  H   SER A   2      45.695  25.157   5.919  0.00  0.00    +0.211 HD
ENDBRANCH  15  16
ENDBRANCH  12  15
ENDBRANCH   2  12
TORSDOF 8
REMARK  Name = ../refined-set-2016/2tmn/2tmn_pocket.pdb
REMARK  145 active torsions:
REMARK  status: ('A' for Active; 'I' for Inactive)
REMARK    1  A    between atoms: _1  and  _3
REMARK    2  A    between atoms: _3  and  _4
REMARK    3  A    between atoms: _3  and  _6
REMARK    4  A    between atoms: _6  and  _7
REMARK    5  A    between atoms: _12  and  _13
REMARK    6  A    between atoms: _15  and  _17
REMARK    7  A    between atoms: _17  and  _18
REMARK    8  A    between atoms: _17  and  _20
REMARK    9  A    between atoms: _20  and  _21
REMARK   10  A    between atoms: _26  and  _28
REMARK   11  A    between atoms: _28  and  _29
REMARK   12  A    between atoms: _28  and  _31
REMARK   13  A    between atoms: _31  and  _32
REMARK   14  A    between atoms: _37  and  _39
REMARK   15  A    between atoms: _39  and  _40
REMARK   16  A    between atoms: _43  and  _45
REMARK   17  A    between atoms: _45  and  _46
REMARK   18  A    between atoms: _45  and  _48
REMARK   19  A    between atoms: _48  and  _49
REMARK   20  A    between atoms: _55  and  _57
REMARK   21  A    between atoms: _57  and  _58
REMARK   22  A    between atoms: _57  and  _60
REMARK   23  A    between atoms: _60  and  _61
REMARK   24  A    between atoms: _71  and  _73
REMARK   25  A    between atoms: _73  and  _74
REMARK   26  A    between atoms: _73  and  _76
REMARK   27  A    between atoms: _76  and  _77
REMARK   28  A    between atoms: _82  and  _84
REMARK   29  A    between atoms: _84  and  _85
REMARK   30  A    between atoms: _84  and  _87
REMARK   31  A    between atoms: _90  and  _92
REMARK   32  A    between atoms: _92  and  _93
REMARK   33  A    between atoms: _92  and  _95
REMARK   34  A    between atoms: _95  and  _96
REMARK   35  A    between atoms: _101  and  _102
REMARK   36  A    between atoms: _104  and  _106
REMARK   37  A    between atoms: _106  and  _107
REMARK   38  A    between atoms: _109  and  _111
REMARK   39  A    between atoms: _111  and  _112
REMARK   40  A    between atoms: _111  and  _114
REMARK   41  A    between atoms: _114  and  _115
REMARK   42  A    between atoms: _121  and  _123
REMARK   43  A    between atoms: _123  and  _124
REMARK   44  A    between atoms: _123  and  _126
REMARK   45  A    between atoms: _126  and  _127
REMARK   46  A    between atoms: _130  and  _132
REMARK   47  A    between atoms: _132  and  _133
REMARK   48  A    between atoms: _132  and  _135
REMARK   49  A    between atoms: _135  and  _136
REMARK   50  A    between atoms: _138  and  _140
REMARK   51  A    between atoms: _140  and  _141
REMARK   52  A    between atoms: _143  and  _145
REMARK   53  A    between atoms: _145  and  _146
REMARK   54  A    between atoms: _145  and  _148
REMARK   55  A    between atoms: _148  and  _149
REMARK   56  A    between atoms: _152  and  _154
REMARK   57  A    between atoms: _154  and  _155
REMARK   58  A    between atoms: _154  and  _157
REMARK   59  A    between atoms: _160  and  _162
REMARK   60  A    between atoms: _162  and  _163
REMARK   61  A    between atoms: _162  and  _165
REMARK   62  A    between atoms: _168  and  _170
REMARK   63  A    between atoms: _170  and  _171
REMARK   64  A    between atoms: _174  and  _176
REMARK   65  A    between atoms: _176  and  _177
REMARK   66  A    between atoms: _176  and  _179
REMARK   67  A    between atoms: _179  and  _180
REMARK   68  A    between atoms: _184  and  ZN_365
REMARK   69  A    between atoms: _185  and  _187
REMARK   70  A    between atoms: _187  and  _188
REMARK   71  A    between atoms: _187  and  _190
REMARK   72  A    between atoms: _190  and  _191
REMARK   73  A    between atoms: _191  and  _192
REMARK   74  A    between atoms: _195  and  _197
REMARK   75  A    between atoms: _197  and  _198
REMARK   76  A    between atoms: _197  and  _200
REMARK   77  A    between atoms: _200  and  _201
REMARK   78  A    between atoms: _204  and  _206
REMARK   79  A    between atoms: _206  and  _207
REMARK   80  A    between atoms: _206  and  _209
REMARK   81  A    between atoms: _209  and  _210
REMARK   82  A    between atoms: _214  and  ZN_365
REMARK   83  A    between atoms: _215  and  _217
REMARK   84  A    between atoms: _217  and  _218
REMARK   85  A    between atoms: _217  and  _220
REMARK   86  A    between atoms: _220  and  _221
REMARK   87  A    between atoms: _226  and  _227
REMARK   88  A    between atoms: _229  and  _231
REMARK   89  A    between atoms: _231  and  _232
REMARK   90  A    between atoms: _231  and  _234
REMARK   91  A    between atoms: _234  and  _235
REMARK   92  A    between atoms: _240  and  _242
REMARK   93  A    between atoms: _242  and  _243
REMARK   94  A    between atoms: _242  and  _245
REMARK   95  A    between atoms: _245  and  _246
REMARK   96  A    between atoms: _246  and  _247
REMARK   97  A    between atoms: _247  and  _248
REMARK   98  A    between atoms: _248  and  ZN_365
REMARK   99  A    between atoms: _250  and  _252
REMARK  100  A    between atoms: _252  and  _253
REMARK  101  A    between atoms: _252  and  _255
REMARK  102  A    between atoms: _255  and  _256
REMARK  103  A    between atoms: _258  and  _260
REMARK  104  A    between atoms: _260  and  _261
REMARK  105  A    between atoms: _260  and  _263
REMARK  106  A    between atoms: _263  and  _264
REMARK  107  A    between atoms: _267  and  _269
REMARK  108  A    between atoms: _269  and  _270
REMARK  109  A    between atoms: _269  and  _272
REMARK  110  A    between atoms: _272  and  _273
REMARK  111  A    between atoms: _276  and  _278
REMARK  112  A    between atoms: _278  and  _279
REMARK  113  A    between atoms: _281  and  _283
REMARK  114  A    between atoms: _283  and  _284
REMARK  115  A    between atoms: _283  and  _286
REMARK  116  A    between atoms: _289  and  _291
REMARK  117  A    between atoms: _291  and  _292
REMARK  118  A    between atoms: _291  and  _294
REMARK  119  A    between atoms: _294  and  _295
REMARK  120  A    between atoms: _300  and  _301
REMARK  121  A    between atoms: _303  and  _305
REMARK  122  A    between atoms: _305  and  _306
REMARK  123  A    between atoms: _305  and  _308
REMARK  124  A    between atoms: _308  and  _309
REMARK  125  A    between atoms: _312  and  _314
REMARK  126  A    between atoms: _314  and  _315
REMARK  127  A    between atoms: _314  and  _317
REMARK  128  A    between atoms: _317  and  _318
REMARK  129  A    between atoms: _318  and  _319
REMARK  130  A    between atoms: _319  and  _320
REMARK  131  A    between atoms: _329  and  _331
REMARK  132  A    between atoms: _331  and  _332
REMARK  133  A    between atoms: _331  and  _334
REMARK  134  A    between atoms: _334  and  _335
REMARK  135  A    between atoms: _338  and  _340
REMARK  136  A    between atoms: _340  and  _341
REMARK  137  A    between atoms: _340  and  _343
REMARK  138  A    between atoms: _346  and  _348
REMARK  139  A    between atoms: _348  and  _349
REMARK  140  A    between atoms: _348  and  _351
REMARK  141  A    between atoms: _351  and  _352
REMARK  142  A    between atoms: _357  and  _359
REMARK  143  A    between atoms: _359  and  _360
REMARK  144  A    between atoms: _359  and  _362
REMARK  145  A    between atoms: _362  and  _363
REMARK                            x       y       z     vdW  Elec       q    Type
REMARK                         _______ _______ _______ _____ _____    ______ ____
ROOT
ATOM      1  CA  GLY A   1      53.845  23.607   6.209  0.00  0.00    +0.156 C 
ENDROOT
BRANCH   1   2
ATOM      2  N   GLY A   1      52.479  23.517   6.613  0.00  0.00    -0.238 NA
ATOM      3  H   GLY A   1      51.773  23.225   5.907  0.00  0.00    +0.142 HD
ENDBRANCH   1   2
BRANCH   1   4
ATOM      4  C   GLY A   1      54.044  24.769   5.263  0.00  0.00    +0.226 C 
ATOM      5  O   GLY A   1      53.471  24.828   4.147  0.00  0.00    -0.287 OA
ENDBRANCH   1   4
TORSDOF 2
REMARK  Name = ../refined-set-2016/2tmn/2tmn_pocket.pdb
REMARK  145 active torsions:
REMARK  status: ('A' for Active; 'I' for Inactive)
REMARK    1  A    between atoms: _1  and  _3
REMARK    2  A    between atoms: _3  and  _4
REMARK    3  A    between atoms: _3  and  _6
REMARK    4  A    between atoms: _6  and  _7
REMARK    5  A    between atoms: _12  and  _13
REMARK    6  A    between atoms: _15  and  _17
REMARK    7  A    between atoms: _17  and  _18
REMARK    8  A    between atoms: _17  and  _20
REMARK    9  A    between atoms: _20  and  _21
REMARK   10  A    between atoms: _26  and  _28
REMARK   11  A    between atoms: _28  and  _29
REMARK   12  A    between atoms: _28  and  _31
REMARK   13  A    between atoms: _31  and  _32
REMARK   14  A    between atoms: _37  and  _39
REMARK   15  A    between atoms: _39  and  _40
REMARK   16  A    between atoms: _43  and  _45
REMARK   17  A    between atoms: _45  and  _46
REMARK   18  A    between atoms: _45  and  _48
REMARK   19  A    between atoms: _48  and  _49
REMARK   20  A    between atoms: _55  and  _57
REMARK   21  A    between atoms: _57  and  _58
REMARK   22  A    between atoms: _57  and  _60
REMARK   23  A    between atoms: _60  and  _61
REMARK   24  A    between atoms: _71  and  _73
REMARK   25  A    between atoms: _73  and  _74
REMARK   26  A    between atoms: _73  and  _76
REMARK   27  A    between atoms: _76  and  _77
REMARK   28  A    between atoms: _82  and  _84
REMARK   29  A    between atoms: _84  and  _85
REMARK   30  A    between atoms: _84  and  _87
REMARK   31  A    between atoms: _90  and  _92
REMARK   32  A    between atoms: _92  and  _93
REMARK   33  A    between atoms: _92  and  _95
REMARK   34  A    between atoms: _95  and  _96
REMARK   35  A    between atoms: _101  and  _102
REMARK   36  A    between atoms: _104  and  _106
REMARK   37  A    between atoms: _106  and  _107
REMARK   38  A    between atoms: _109  and  _111
REMARK   39  A    between atoms: _111  and  _112
REMARK   40  A    between atoms: _111  and  _114
REMARK   41  A    between atoms: _114  and  _115
REMARK   42  A    between atoms: _121  and  _123
REMARK   43  A    between atoms: _123  and  _124
REMARK   44  A    between atoms: _123  and  _126
REMARK   45  A    between atoms: _126  and  _127
REMARK   46  A    between atoms: _130  and  _132
REMARK   47  A    between atoms: _132  and  _133
REMARK   48  A    between atoms: _132  and  _135
REMARK   49  A    between atoms: _135  and  _136
REMARK   50  A    between atoms: _138  and  _140
REMARK   51  A    between atoms: _140  and  _141
REMARK   52  A    between atoms: _143  and  _145
REMARK   53  A    between atoms: _145  and  _146
REMARK   54  A    between atoms: _145  and  _148
REMARK   55  A    between atoms: _148  and  _149
REMARK   56  A    between atoms: _152  and  _154
REMARK   57  A    between atoms: _154  and  _155
REMARK   58  A    between atoms: _154  and  _157
REMARK   59  A    between atoms: _160  and  _162
REMARK   60  A    between atoms: _162  and  _163
REMARK   61  A    between atoms: _162  and  _165
REMARK   62  A    between atoms: _168  and  _170
REMARK   63  A    between atoms: _170  and  _171
REMARK   64  A    between atoms: _174  and  _176
REMARK   65  A    between atoms: _176  and  _177
REMARK   66  A    between atoms: _176  and  _179
REMARK   67  A    between atoms: _179  and  _180
REMARK   68  A    between atoms: _184  and  ZN_365
REMARK   69  A    between atoms: _185  and  _187
REMARK   70  A    between atoms: _187  and  _188
REMARK   71  A    between atoms: _187  and  _190
REMARK   72  A    between atoms: _190  and  _191
REMARK   73  A    between atoms: _191  and  _192
REMARK   74  A    between atoms: _195  and  _197
REMARK   75  A    between atoms: _197  and  _198
REMARK   76  A    between atoms: _197  and  _200
REMARK   77  A    between atoms: _200  and  _201
REMARK   78  A    between atoms: _204  and  _206
REMARK   79  A    between atoms: _206  and  _207
REMARK   80  A    between atoms: _206  and  _209
REMARK   81  A    between atoms: _209  and  _210
REMARK   82  A    between atoms: _214  and  ZN_365
REMARK   83  A    between atoms: _215  and  _217
REMARK   84  A    between atoms: _217  and  _218
REMARK   85  A    between atoms: _217  and  _220
REMARK   86  A    between atoms: _220  and  _221
REMARK   87  A    between atoms: _226  and  _227
REMARK   88  A    between atoms: _229  and  _231
REMARK   89  A    between atoms: _231  and  _232
REMARK   90  A    between atoms: _231  and  _234
REMARK   91  A    between atoms: _234  and  _235
REMARK   92  A    between atoms: _240  and  _242
REMARK   93  A    between atoms: _242  and  _243
REMARK   94  A    between atoms: _242  and  _245
REMARK   95  A    between atoms: _245  and  _246
REMARK   96  A    between atoms: _246  and  _247
REMARK   97  A    between atoms: _247  and  _248
REMARK   98  A    between atoms: _248  and  ZN_365
REMARK   99  A    between atoms: _250  and  _252
REMARK  100  A    between atoms: _252  and  _253
REMARK  101  A    between atoms: _252  and  _255
REMARK  102  A    between atoms: _255  and  _256
REMARK  103  A    between atoms: _258  and  _260
REMARK  104  A    between atoms: _260  and  _261
REMARK  105  A    between atoms: _260  and  _263
REMARK  106  A    between atoms: _263  and  _264
REMARK  107  A    between atoms: _267  and  _269
REMARK  108  A    between atoms: _269  and  _270
REMARK  109  A    between atoms: _269  and  _272
REMARK  110  A    between atoms: _272  and  _273
REMARK  111  A    between atoms: _276  and  _278
REMARK  112  A    between atoms: _278  and  _279
REMARK  113  A    between atoms: _281  and  _283
REMARK  114  A    between atoms: _283  and  _284
REMARK  115  A    between atoms: _283  and  _286
REMARK  116  A    between atoms: _289  and  _291
REMARK  117  A    between atoms: _291  and  _292
REMARK  118  A    between atoms: _291  and  _294
REMARK  119  A    between atoms: _294  and  _295
REMARK  120  A    between atoms: _300  and  _301
REMARK  121  A    between atoms: _303  and  _305
REMARK  122  A    between atoms: _305  and  _306
REMARK  123  A    between atoms: _305  and  _308
REMARK  124  A    between atoms: _308  and  _309
REMARK  125  A    between atoms: _312  and  _314
REMARK  126  A    between atoms: _314  and  _315
REMARK  127  A    between atoms: _314  and  _317
REMARK  128  A    between atoms: _317  and  _318
REMARK  129  A    between atoms: _318  and  _319
REMARK  130  A    between atoms: _319  and  _320
REMARK  131  A    between atoms: _329  and  _331
REMARK  132  A    between atoms: _331  and  _332
REMARK  133  A    between atoms: _331  and  _334
REMARK  134  A    between atoms: _334  and  _335
REMARK  135  A    between atoms: _338  and  _340
REMARK  136  A    between atoms: _340  and  _341
REMARK  137  A    between atoms: _340  and  _343
REMARK  138  A    between atoms: _346  and  _348
REMARK  139  A    between atoms: _348  and  _349
REMARK  140  A    between atoms: _348  and  _351
REMARK  141  A    between atoms: _351  and  _352
REMARK  142  A    between atoms: _357  and  _359
REMARK  143  A    between atoms: _359  and  _360
REMARK  144  A    between atoms: _359  and  _362
REMARK  145  A    between atoms: _362  and  _363
REMARK                            x       y       z     vdW  Elec       q    Type
REMARK                         _______ _______ _______ _____ _____    ______ ____
ROOT
ATOM      1  C   UNK A   5      55.568  25.020  -3.394  0.00  0.00    +0.000 C 
ENDROOT
BRANCH   1   3
ATOM      2  C   ALA A   4      55.345  27.317  -2.450  0.00  0.00    +0.000 C 
ATOM      3  N   UNK A   5      55.375  25.966  -2.234  0.00  0.00    +0.000 N 
ATOM      4  H   UNK A   5      55.265  25.591  -1.270  0.00  0.00    +0.000 HD
ATOM      5  O   ALA A   4      55.491  27.773  -3.589  0.00  0.00    +0.000 OA
BRANCH   2   6
ATOM      6  CA  ALA A   4      55.086  28.139  -1.212  0.00  0.00    +0.000 C 
ATOM      7  CB  ALA A   4      56.362  28.641  -0.526  0.00  0.00    +0.000 C 
BRANCH   6   9
ATOM      8  C   VAL A   3      52.888  27.250  -0.407  0.00  0.00    +0.000 C 
ATOM      9  N   ALA A   4      54.265  27.485  -0.205  0.00  0.00    +0.000 N 
ATOM     10  H   ALA A   4      54.704  27.182   0.688  0.00  0.00    +0.000 HD
ATOM     11  O   VAL A   3      52.405  27.436  -1.508  0.00  0.00    +0.000 OA
BRANCH   8  12
ATOM     12  CA  VAL A   3      52.108  26.596   0.722  0.00  0.00    +0.000 C 
BRANCH  12  14
ATOM     13  C   UNK A   2      53.239  24.324   0.350  0.00  0.00    +0.000 C 
ATOM     14  N   VAL A   3      52.834  25.349   1.141  0.00  0.00    +0.000 N 
ATOM     15  H   VAL A   3      53.051  25.262   2.154  0.00  0.00    +0.000 HD
ATOM     16  O   UNK A   2      53.072  24.266  -0.913  0.00  0.00    +0.000 OA
BRANCH  13  17
ATOM     17  C   UNK A   2      54.023  23.174   1.097  0.00  0.00    +0.000 C 
BRANCH  17  19
ATOM     18  C   UNK A   1      56.251  24.422   1.295  0.00  0.00    +0.000 C 
ATOM     19  N   UNK A   2      55.188  23.764   1.851  0.00  0.00    +0.000 N 
ATOM     20  H   UNK A   2      55.183  23.662   2.886  0.00  0.00    +0.000 HD
ATOM     21  O   UNK A   1      56.391  24.500   0.053  0.00  0.00    +0.000 OA
BRANCH  18  22
ATOM     22  C   UNK A   1      57.294  24.996   2.214  0.00  0.00    +0.000 C 
BRANCH  22  23
ATOM     23  N   UNK A   1      56.704  25.426   3.503  0.00  0.00    +0.000 NA
ATOM     24  H   UNK A   1      56.979  24.959   4.391  0.00  0.00    +0.000 HD
ENDBRANCH  22  23
BRANCH  22  25
ATOM     25  C   UNK A   1      58.495  23.987   2.368  0.00  0.00    +0.000 C 
BRANCH  25  26
ATOM     26  C   UNK A   1      58.306  22.845   3.316  0.00  0.00    +0.000 C 
ATOM     27  O   UNK A   1      57.144  22.538   3.811  0.00  0.00    +0.000 OA
ATOM     28  O   UNK A   1      59.227  22.160   3.667  0.00  0.00    +0.000 OA
ENDBRANCH  25  26
ENDBRANCH  22  25
ENDBRANCH  18  22
ENDBRANCH  17  19
BRANCH  17  29
ATOM     29  C   UNK A   2      53.149  22.283   2.012  0.00  0.00    +0.000 C 
ATOM     30  C   UNK A   2      54.046  21.046   2.334  0.00  0.00    +0.000 C 
ATOM     31  C   UNK A   2      51.860  21.914   1.294  0.00  0.00    +0.000 C 
ENDBRANCH  17  29
ENDBRANCH  13  17
ENDBRANCH  12  14
BRANCH  12  32
ATOM     32  CB  VAL A   3      51.743  27.529   1.913  0.00  0.00    +0.000 C 
ATOM     33  CG2 VAL A   3      50.717  26.772   2.773  0.00  0.00    +0.000 C 
ATOM     34  CG1 VAL A   3      51.177  28.719   1.184  0.00  0.00    +0.000 C 
ENDBRANCH  12  32
ENDBRANCH   8  12
ENDBRANCH   6   9
ENDBRANCH   2   6
ENDBRANCH   1   3
BRANCH   1  35
ATOM     35  C   UNK A   5      54.394  25.236  -4.358  0.00  0.00    +0.000 C 
ATOM     36  N   GLU A   6      53.172  25.261  -3.756  0.00  0.00    +0.000 N 
ATOM     37  H   GLU A   6      53.164  25.149  -2.722  0.00  0.00    +0.000 HD
ATOM     38  O   UNK A   5      54.530  25.332  -5.595  0.00  0.00    +0.000 OA
BRANCH  36  39
ATOM     39  CA  GLU A   6      51.862  25.429  -4.406  0.00  0.00    +0.000 C 
BRANCH  39  40
ATOM     40  C   GLU A   6      51.733  26.704  -5.280  0.00  0.00    +0.000 C 
ATOM     41  N   LEU A   7      52.057  27.786  -4.606  0.00  0.00    +0.000 N 
ATOM     42  H   LEU A   7      52.385  27.669  -3.626  0.00  0.00    +0.000 HD
ATOM     43  O   GLU A   6      51.458  26.751  -6.520  0.00  0.00    +0.000 OA
BRANCH  41  44
ATOM     44  CA  LEU A   7      51.983  29.172  -5.159  0.00  0.00    +0.000 C 
BRANCH  44  45
ATOM     45  C   LEU A   7      52.993  29.355  -6.306  0.00  0.00    +0.000 C 
ATOM     46  O   LEU A   7      52.811  29.973  -7.344  0.00  0.00    +0.000 OA
ENDBRANCH  44  45
BRANCH  44  47
ATOM     47  CB  LEU A   7      52.162  30.154  -3.950  0.00  0.00    +0.000 C 
BRANCH  47  48
ATOM     48  CG  LEU A   7      51.283  31.433  -3.928  0.00  0.00    +0.000 C 
ATOM     49  CD2 LEU A   7      51.933  32.671  -4.439  0.00  0.00    +0.000 C 
ATOM     50  CD1 LEU A   7      50.220  31.337  -5.017  0.00  0.00    +0.000 C 
ENDBRANCH  47  48
ENDBRANCH  44  47
ENDBRANCH  41  44
ENDBRANCH  39  40
BRANCH  39  51
ATOM     51  CB  GLU A   6      50.649  25.112  -3.460  0.00  0.00    +0.000 C 
BRANCH  51  52
ATOM     52  CG  GLU A   6      50.538  23.593  -2.995  0.00  0.00    +0.000 C 
BRANCH  52  53
ATOM     53  CD  GLU A   6      50.939  22.525  -3.986  0.00  0.00    +0.000 C 
ATOM     54  OE2 GLU A   6      51.366  21.502  -3.388  0.00  0.00    +0.000 OA
ATOM     55  OE1 GLU A   6      50.791  22.546  -5.201  0.00  0.00    +0.000 OA
ENDBRANCH  52  53
ENDBRANCH  51  52
ENDBRANCH  39  51
ENDBRANCH  36  39
ENDBRANCH   1  35
BRANCH   1  56
ATOM     56  C   UNK A   5      55.739  23.600  -2.799  0.00  0.00    +0.000 C 
BRANCH  56  57
ATOM     57  C   UNK A   5      55.756  22.511  -3.830  0.00  0.00    +0.000 A 
ATOM     58  N   UNK A   5      56.915  21.749  -4.109  0.00  0.00    +0.000 NA
ATOM     59  C   UNK A   5      56.593  20.944  -5.122  0.00  0.00    +0.000 A 
ATOM     60  N   UNK A   5      55.303  21.102  -5.473  0.00  0.00    +0.000 N 
ATOM     61  C   UNK A   5      54.763  22.106  -4.658  0.00  0.00    +0.000 A 
BRANCH  60  62
ATOM     62 ZN   UNK A   5      54.300  20.236  -7.126  0.00  0.00    +0.000 Zn
BRANCH  62  63
ATOM     63  N   UNK A   1      53.778  21.986  -8.166  0.00  0.00    +0.000 N 
ATOM     64  C   UNK A   1      52.919  23.021  -7.828  0.00  0.00    +0.000 A 
ATOM     65  C   UNK A   1      53.055  23.878  -8.854  0.00  0.00    +0.000 A 
ATOM     66  N   UNK A   1      53.996  23.348  -9.779  0.00  0.00    +0.000 NA
ATOM     67  C   UNK A   1      54.393  22.172  -9.333  0.00  0.00    +0.000 A 
BRANCH  65  68
ATOM     68  C   UNK A   1      52.396  25.218  -9.088  0.00  0.00    +0.000 C 
BRANCH  68  69
ATOM     69  C   UNK A   1      53.389  26.370  -9.446  0.00  0.00    +0.000 C 
BRANCH  69  70
ATOM     70  C   UNK A   1      52.602  27.438 -10.254  0.00  0.00    +0.000 C 
ATOM     71  O   UNK A   1      52.612  27.377 -11.503  0.00  0.00    +0.000 OA
ENDBRANCH  69  70
BRANCH  69  72
ATOM     72  N   UNK A   1      53.859  26.980  -8.170  0.00  0.00    +0.000 NA
ATOM     73  H   UNK A   1      53.519  26.620  -7.255  0.00  0.00    +0.000 HD
ENDBRANCH  69  72
ENDBRANCH  68  69
ENDBRANCH  65  68
ENDBRANCH  62  63
BRANCH  62  74
ATOM     74  O   UNK A   2      55.313  19.357  -8.804  0.00  0.00    +0.000 OA
BRANCH  74  75
ATOM     75  C   UNK A   2      56.324  18.830  -8.510  0.00  0.00    +0.000 C 
ATOM     76  O   UNK A   2      56.778  18.760  -7.252  0.00  0.00    +0.000 OA
BRANCH  75  77
ATOM     77  C   UNK A   2      57.128  18.207  -9.610  0.00  0.00    +0.000 C 
BRANCH  77  78
ATOM     78  C   UNK A   2      58.561  18.745  -9.479  0.00  0.00    +0.000 C 
BRANCH  78  79
ATOM     79  C   UNK A   2      58.609  20.331  -9.475  0.00  0.00    +0.000 C 
BRANCH  79  80
ATOM     80  N   UNK A   2      58.615  20.828 -10.887  0.00  0.00    +0.000 N 
ATOM     81  C   UNK A   1      58.528  22.148 -11.211  0.00  0.00    +0.000 C 
ATOM     82  O   UNK A   1      58.460  23.076 -10.377  0.00  0.00    +0.000 OA
ATOM     83  H   UNK A   2      58.689  20.133 -11.657  0.00  0.00    +0.000 HD
BRANCH  81  84
ATOM     84  C   UNK A   1      58.615  22.403 -12.701  0.00  0.00    +0.000 C 
BRANCH  84  85
ATOM     85  N   UNK A   1      59.777  21.722 -13.315  0.00  0.00    +0.000 NA
ATOM     86  H   UNK A   1      59.618  21.089 -14.125  0.00  0.00    +0.000 HD
ENDBRANCH  84  85
BRANCH  84  87
ATOM     87  C   UNK A   1      57.366  22.007 -13.575  0.00  0.00    +0.000 C 
BRANCH  87  88
ATOM     88  C   UNK A   1      56.089  22.791 -13.178  0.00  0.00    +0.000 C 
ATOM     89  O   UNK A   1      55.871  23.001 -11.988  0.00  0.00    +0.000 OA
ATOM     90  N   UNK A   1      55.256  23.140 -14.142  0.00  0.00    +0.000 N 
ATOM     91  H   UNK A   1      54.362  23.619 -13.909  0.00  0.00    +0.000 HD
ATOM     92  H   UNK A   1      55.494  22.936 -15.134  0.00  0.00    +0.000 HD
ENDBRANCH  87  88
ENDBRANCH  84  87
ENDBRANCH  81  84
ENDBRANCH  79  80
BRANCH  79  93
ATOM     93  C   UNK A   2      59.793  20.882  -8.640  0.00  0.00    +0.000 C 
ATOM     94  O   UNK A   2      59.617  21.351  -7.542  0.00  0.00    +0.000 OA
ENDBRANCH  79  93
ENDBRANCH  78  79
ENDBRANCH  77  78
ENDBRANCH  75  77
ENDBRANCH  74  75
ENDBRANCH  62  74
ENDBRANCH  60  62
ENDBRANCH  56  57
ENDBRANCH   1  56
TORSDOF 42
REMARK  Name = ../refined-set-2016/2tmn/2tmn_pocket.pdb
REMARK  145 active torsions:
REMARK  status: ('A' for Active; 'I' for Inactive)
REMARK    1  A    between atoms: _1  and  _3
REMARK    2  A    between atoms: _3  and  _4
REMARK    3  A    between atoms: _3  and  _6
REMARK    4  A    between atoms: _6  and  _7
REMARK    5  A    between atoms: _12  and  _13
REMARK    6  A    between atoms: _15  and  _17
REMARK    7  A    between atoms: _17  and  _18
REMARK    8  A    between atoms: _17  and  _20
REMARK    9  A    between atoms: _20  and  _21
REMARK   10  A    between atoms: _26  and  _28
REMARK   11  A    between atoms: _28  and  _29
REMARK   12  A    between atoms: _28  and  _31
REMARK   13  A    between atoms: _31  and  _32
REMARK   14  A    between atoms: _37  and  _39
REMARK   15  A    between atoms: _39  and  _40
REMARK   16  A    between atoms: _43  and  _45
REMARK   17  A    between atoms: _45  and  _46
REMARK   18  A    between atoms: _45  and  _48
REMARK   19  A    between atoms: _48  and  _49
REMARK   20  A    between atoms: _55  and  _57
REMARK   21  A    between atoms: _57  and  _58
REMARK   22  A    between atoms: _57  and  _60
REMARK   23  A    between atoms: _60  and  _61
REMARK   24  A    between atoms: _71  and  _73
REMARK   25  A    between atoms: _73  and  _74
REMARK   26  A    between atoms: _73  and  _76
REMARK   27  A    between atoms: _76  and  _77
REMARK   28  A    between atoms: _82  and  _84
REMARK   29  A    between atoms: _84  and  _85
REMARK   30  A    between atoms: _84  and  _87
REMARK   31  A    between atoms: _90  and  _92
REMARK   32  A    between atoms: _92  and  _93
REMARK   33  A    between atoms: _92  and  _95
REMARK   34  A    between atoms: _95  and  _96
REMARK   35  A    between atoms: _101  and  _102
REMARK   36  A    between atoms: _104  and  _106
REMARK   37  A    between atoms: _106  and  _107
REMARK   38  A    between atoms: _109  and  _111
REMARK   39  A    between atoms: _111  and  _112
REMARK   40  A    between atoms: _111  and  _114
REMARK   41  A    between atoms: _114  and  _115
REMARK   42  A    between atoms: _121  and  _123
REMARK   43  A    between atoms: _123  and  _124
REMARK   44  A    between atoms: _123  and  _126
REMARK   45  A    between atoms: _126  and  _127
REMARK   46  A    between atoms: _130  and  _132
REMARK   47  A    between atoms: _132  and  _133
REMARK   48  A    between atoms: _132  and  _135
REMARK   49  A    between atoms: _135  and  _136
REMARK   50  A    between atoms: _138  and  _140
REMARK   51  A    between atoms: _140  and  _141
REMARK   52  A    between atoms: _143  and  _145
REMARK   53  A    between atoms: _145  and  _146
REMARK   54  A    between atoms: _145  and  _148
REMARK   55  A    between atoms: _148  and  _149
REMARK   56  A    between atoms: _152  and  _154
REMARK   57  A    between atoms: _154  and  _155
REMARK   58  A    between atoms: _154  and  _157
REMARK   59  A    between atoms: _160  and  _162
REMARK   60  A    between atoms: _162  and  _163
REMARK   61  A    between atoms: _162  and  _165
REMARK   62  A    between atoms: _168  and  _170
REMARK   63  A    between atoms: _170  and  _171
REMARK   64  A    between atoms: _174  and  _176
REMARK   65  A    between atoms: _176  and  _177
REMARK   66  A    between atoms: _176  and  _179
REMARK   67  A    between atoms: _179  and  _180
REMARK   68  A    between atoms: _184  and  ZN_365
REMARK   69  A    between atoms: _185  and  _187
REMARK   70  A    between atoms: _187  and  _188
REMARK   71  A    between atoms: _187  and  _190
REMARK   72  A    between atoms: _190  and  _191
REMARK   73  A    between atoms: _191  and  _192
REMARK   74  A    between atoms: _195  and  _197
REMARK   75  A    between atoms: _197  and  _198
REMARK   76  A    between atoms: _197  and  _200
REMARK   77  A    between atoms: _200  and  _201
REMARK   78  A    between atoms: _204  and  _206
REMARK   79  A    between atoms: _206  and  _207
REMARK   80  A    between atoms: _206  and  _209
REMARK   81  A    between atoms: _209  and  _210
REMARK   82  A    between atoms: _214  and  ZN_365
REMARK   83  A    between atoms: _215  and  _217
REMARK   84  A    between atoms: _217  and  _218
REMARK   85  A    between atoms: _217  and  _220
REMARK   86  A    between atoms: _220  and  _221
REMARK   87  A    between atoms: _226  and  _227
REMARK   88  A    between atoms: _229  and  _231
REMARK   89  A    between atoms: _231  and  _232
REMARK   90  A    between atoms: _231  and  _234
REMARK   91  A    between atoms: _234  and  _235
REMARK   92  A    between atoms: _240  and  _242
REMARK   93  A    between atoms: _242  and  _243
REMARK   94  A    between atoms: _242  and  _245
REMARK   95  A    between atoms: _245  and  _246
REMARK   96  A    between atoms: _246  and  _247
REMARK   97  A    between atoms: _247  and  _248
REMARK   98  A    between atoms: _248  and  ZN_365
REMARK   99  A    between atoms: _250  and  _252
REMARK  100  A    between atoms: _252  and  _253
REMARK  101  A    between atoms: _252  and  _255
REMARK  102  A    between atoms: _255  and  _256
REMARK  103  A    between atoms: _258  and  _260
REMARK  104  A    between atoms: _260  and  _261
REMARK  105  A    between atoms: _260  and  _263
REMARK  106  A    between atoms: _263  and  _264
REMARK  107  A    between atoms: _267  and  _269
REMARK  108  A    between atoms: _269  and  _270
REMARK  109  A    between atoms: _269  and  _272
REMARK  110  A    between atoms: _272  and  _273
REMARK  111  A    between atoms: _276  and  _278
REMARK  112  A    between atoms: _278  and  _279
REMARK  113  A    between atoms: _281  and  _283
REMARK  114  A    between atoms: _283  and  _284
REMARK  115  A    between atoms: _283  and  _286
REMARK  116  A    between atoms: _289  and  _291
REMARK  117  A    between atoms: _291  and  _292
REMARK  118  A    between atoms: _291  and  _294
REMARK  119  A    between atoms: _294  and  _295
REMARK  120  A    between atoms: _300  and  _301
REMARK  121  A    between atoms: _303  and  _305
REMARK  122  A    between atoms: _305  and  _306
REMARK  123  A    between atoms: _305  and  _308
REMARK  124  A    between atoms: _308  and  _309
REMARK  125  A    between atoms: _312  and  _314
REMARK  126  A    between atoms: _314  and  _315
REMARK  127  A    between atoms: _314  and  _317
REMARK  128  A    between atoms: _317  and  _318
REMARK  129  A    between atoms: _318  and  _319
REMARK  130  A    between atoms: _319  and  _320
REMARK  131  A    between atoms: _329  and  _331
REMARK  132  A    between atoms: _331  and  _332
REMARK  133  A    between atoms: _331  and  _334
REMARK  134  A    between atoms: _334  and  _335
REMARK  135  A    between atoms: _338  and  _340
REMARK  136  A    between atoms: _340  and  _341
REMARK  137  A    between atoms: _340  and  _343
REMARK  138  A    between atoms: _346  and  _348
REMARK  139  A    between atoms: _348  and  _349
REMARK  140  A    between atoms: _348  and  _351
REMARK  141  A    between atoms: _351  and  _352
REMARK  142  A    between atoms: _357  and  _359
REMARK  143  A    between atoms: _359  and  _360
REMARK  144  A    between atoms: _359  and  _362
REMARK  145  A    between atoms: _362  and  _363
REMARK                            x       y       z     vdW  Elec       q    Type
REMARK                         _______ _______ _______ _____ _____    ______ ____
ROOT
ATOM      1  CG  TYR A   1      53.117  18.706 -14.038  0.00  0.00    -0.020 A 
ATOM      2  CD2 TYR A   1      53.990  19.502 -13.290  0.00  0.00    -0.001 A 
ATOM      3  CE2 TYR A   1      54.180  19.296 -11.915  0.00  0.00    +0.036 A 
ATOM      4  CZ  TYR A   1      53.517  18.222 -11.294  0.00  0.00    +0.134 A 
ATOM      5  CE1 TYR A   1      52.656  17.407 -12.024  0.00  0.00    +0.036 A 
ATOM      6  CD1 TYR A   1      52.486  17.650 -13.392  0.00  0.00    -0.001 A 
ENDROOT
BRANCH   4   7
ATOM      7  OH  TYR A   1      53.650  17.994  -9.981  0.00  0.00    -0.506 OA
ATOM      8  HH  TYR A   1      54.603  17.829  -9.771  0.00  0.00    +0.292 HD
ENDBRANCH   4   7
BRANCH   1   9
ATOM      9  CB  TYR A   1      52.805  18.937 -15.484  0.00  0.00    +0.051 C 
BRANCH   9  10
ATOM     10  CA  TYR A   1      54.004  18.777 -16.420  0.00  0.00    +0.137 C 
BRANCH  10  11
ATOM     11  N   TYR A   1      53.841  19.677 -17.543  0.00  0.00    -0.239 NA
ATOM     12  H   TYR A   1      52.889  19.930 -17.877  0.00  0.00    +0.142 HD
ENDBRANCH  10  11
BRANCH  10  13
ATOM     13  C   TYR A   1      54.252  17.331 -16.779  0.00  0.00    +0.224 C 
ATOM     14  O   TYR A   1      53.519  16.420 -16.446  0.00  0.00    -0.287 OA
ENDBRANCH  10  13
ENDBRANCH   9  10
ENDBRANCH   1   9
TORSDOF 5
REMARK  Name = ../refined-set-2016/2tmn/2tmn_pocket.pdb
REMARK  145 active torsions:
REMARK  status: ('A' for Active; 'I' for Inactive)
REMARK    1  A    between atoms: _1  and  _3
REMARK    2  A    between atoms: _3  and  _4
REMARK    3  A    between atoms: _3  and  _6
REMARK    4  A    between atoms: _6  and  _7
REMARK    5  A    between atoms: _12  and  _13
REMARK    6  A    between atoms: _15  and  _17
REMARK    7  A    between atoms: _17  and  _18
REMARK    8  A    between atoms: _17  and  _20
REMARK    9  A    between atoms: _20  and  _21
REMARK   10  A    between atoms: _26  and  _28
REMARK   11  A    between atoms: _28  and  _29
REMARK   12  A    between atoms: _28  and  _31
REMARK   13  A    between atoms: _31  and  _32
REMARK   14  A    between atoms: _37  and  _39
REMARK   15  A    between atoms: _39  and  _40
REMARK   16  A    between atoms: _43  and  _45
REMARK   17  A    between atoms: _45  and  _46
REMARK   18  A    between atoms: _45  and  _48
REMARK   19  A    between atoms: _48  and  _49
REMARK   20  A    between atoms: _55  and  _57
REMARK   21  A    between atoms: _57  and  _58
REMARK   22  A    between atoms: _57  and  _60
REMARK   23  A    between atoms: _60  and  _61
REMARK   24  A    between atoms: _71  and  _73
REMARK   25  A    between atoms: _73  and  _74
REMARK   26  A    between atoms: _73  and  _76
REMARK   27  A    between atoms: _76  and  _77
REMARK   28  A    between atoms: _82  and  _84
REMARK   29  A    between atoms: _84  and  _85
REMARK   30  A    between atoms: _84  and  _87
REMARK   31  A    between atoms: _90  and  _92
REMARK   32  A    between atoms: _92  and  _93
REMARK   33  A    between atoms: _92  and  _95
REMARK   34  A    between atoms: _95  and  _96
REMARK   35  A    between atoms: _101  and  _102
REMARK   36  A    between atoms: _104  and  _106
REMARK   37  A    between atoms: _106  and  _107
REMARK   38  A    between atoms: _109  and  _111
REMARK   39  A    between atoms: _111  and  _112
REMARK   40  A    between atoms: _111  and  _114
REMARK   41  A    between atoms: _114  and  _115
REMARK   42  A    between atoms: _121  and  _123
REMARK   43  A    between atoms: _123  and  _124
REMARK   44  A    between atoms: _123  and  _126
REMARK   45  A    between atoms: _126  and  _127
REMARK   46  A    between atoms: _130  and  _132
REMARK   47  A    between atoms: _132  and  _133
REMARK   48  A    between atoms: _132  and  _135
REMARK   49  A    between atoms: _135  and  _136
REMARK   50  A    between atoms: _138  and  _140
REMARK   51  A    between atoms: _140  and  _141
REMARK   52  A    between atoms: _143  and  _145
REMARK   53  A    between atoms: _145  and  _146
REMARK   54  A    between atoms: _145  and  _148
REMARK   55  A    between atoms: _148  and  _149
REMARK   56  A    between atoms: _152  and  _154
REMARK   57  A    between atoms: _154  and  _155
REMARK   58  A    between atoms: _154  and  _157
REMARK   59  A    between atoms: _160  and  _162
REMARK   60  A    between atoms: _162  and  _163
REMARK   61  A    between atoms: _162  and  _165
REMARK   62  A    between atoms: _168  and  _170
REMARK   63  A    between atoms: _170  and  _171
REMARK   64  A    between atoms: _174  and  _176
REMARK   65  A    between atoms: _176  and  _177
REMARK   66  A    between atoms: _176  and  _179
REMARK   67  A    between atoms: _179  and  _180
REMARK   68  A    between atoms: _184  and  ZN_365
REMARK   69  A    between atoms: _185  and  _187
REMARK   70  A    between atoms: _187  and  _188
REMARK   71  A    between atoms: _187  and  _190
REMARK   72  A    between atoms: _190  and  _191
REMARK   73  A    between atoms: _191  and  _192
REMARK   74  A    between atoms: _195  and  _197
REMARK   75  A    between atoms: _197  and  _198
REMARK   76  A    between atoms: _197  and  _200
REMARK   77  A    between atoms: _200  and  _201
REMARK   78  A    between atoms: _204  and  _206
REMARK   79  A    between atoms: _206  and  _207
REMARK   80  A    between atoms: _206  and  _209
REMARK   81  A    between atoms: _209  and  _210
REMARK   82  A    between atoms: _214  and  ZN_365
REMARK   83  A    between atoms: _215  and  _217
REMARK   84  A    between atoms: _217  and  _218
REMARK   85  A    between atoms: _217  and  _220
REMARK   86  A    between atoms: _220  and  _221
REMARK   87  A    between atoms: _226  and  _227
REMARK   88  A    between atoms: _229  and  _231
REMARK   89  A    between atoms: _231  and  _232
REMARK   90  A    between atoms: _231  and  _234
REMARK   91  A    between atoms: _234  and  _235
REMARK   92  A    between atoms: _240  and  _242
REMARK   93  A    between atoms: _242  and  _243
REMARK   94  A    between atoms: _242  and  _245
REMARK   95  A    between atoms: _245  and  _246
REMARK   96  A    between atoms: _246  and  _247
REMARK   97  A    between atoms: _247  and  _248
REMARK   98  A    between atoms: _248  and  ZN_365
REMARK   99  A    between atoms: _250  and  _252
REMARK  100  A    between atoms: _252  and  _253
REMARK  101  A    between atoms: _252  and  _255
REMARK  102  A    between atoms: _255  and  _256
REMARK  103  A    between atoms: _258  and  _260
REMARK  104  A    between atoms: _260  and  _261
REMARK  105  A    between atoms: _260  and  _263
REMARK  106  A    between atoms: _263  and  _264
REMARK  107  A    between atoms: _267  and  _269
REMARK  108  A    between atoms: _269  and  _270
REMARK  109  A    between atoms: _269  and  _272
REMARK  110  A    between atoms: _272  and  _273
REMARK  111  A    between atoms: _276  and  _278
REMARK  112  A    between atoms: _278  and  _279
REMARK  113  A    between atoms: _281  and  _283
REMARK  114  A    between atoms: _283  and  _284
REMARK  115  A    between atoms: _283  and  _286
REMARK  116  A    between atoms: _289  and  _291
REMARK  117  A    between atoms: _291  and  _292
REMARK  118  A    between atoms: _291  and  _294
REMARK  119  A    between atoms: _294  and  _295
REMARK  120  A    between atoms: _300  and  _301
REMARK  121  A    between atoms: _303  and  _305
REMARK  122  A    between atoms: _305  and  _306
REMARK  123  A    between atoms: _305  and  _308
REMARK  124  A    between atoms: _308  and  _309
REMARK  125  A    between atoms: _312  and  _314
REMARK  126  A    between atoms: _314  and  _315
REMARK  127  A    between atoms: _314  and  _317
REMARK  128  A    between atoms: _317  and  _318
REMARK  129  A    between atoms: _318  and  _319
REMARK  130  A    between atoms: _319  and  _320
REMARK  131  A    between atoms: _329  and  _331
REMARK  132  A    between atoms: _331  and  _332
REMARK  133  A    between atoms: _331  and  _334
REMARK  134  A    between atoms: _334  and  _335
REMARK  135  A    between atoms: _338  and  _340
REMARK  136  A    between atoms: _340  and  _341
REMARK  137  A    between atoms: _340  and  _343
REMARK  138  A    between atoms: _346  and  _348
REMARK  139  A    between atoms: _348  and  _349
REMARK  140  A    between atoms: _348  and  _351
REMARK  141  A    between atoms: _351  and  _352
REMARK  142  A    between atoms: _357  and  _359
REMARK  143  A    between atoms: _359  and  _360
REMARK  144  A    between atoms: _359  and  _362
REMARK  145  A    between atoms: _362  and  _363
REMARK                            x       y       z     vdW  Elec       q    Type
REMARK                         _______ _______ _______ _____ _____    ______ ____
ROOT
ATOM      1  C   SER A   1      59.139  24.291  -5.269  0.00  0.00    +0.241 C 
ATOM      2  O   SER A   1      58.898  24.850  -4.182  0.00  0.00    -0.274 OA
ATOM      3  N   ASP A   2      59.994  23.230  -5.263  0.00  0.00    -0.298 N 
ATOM      4  H   ASP A   2      60.143  22.714  -6.154  0.00  0.00    +0.150 HD
ENDROOT
BRANCH   1   5
ATOM      5  CA  SER A   1      58.487  24.702  -6.574  0.00  0.00    +0.174 C 
BRANCH   5   6
ATOM      6  N   SER A   1      59.403  24.568  -7.695  0.00  0.00    -0.236 NA
ATOM      7  H   SER A   1      59.185  23.897  -8.459  0.00  0.00    +0.142 HD
ENDBRANCH   5   6
BRANCH   5   8
ATOM      8  CB  SER A   1      57.191  23.883  -6.829  0.00  0.00    +0.163 C 
BRANCH   8   9
ATOM      9  OG  SER A   1      56.317  24.676  -7.634  0.00  0.00    -0.380 OA
ATOM     10  H   SER A   1      56.762  24.888  -8.493  0.00  0.00    +0.211 HD
ENDBRANCH   8   9
ENDBRANCH   5   8
ENDBRANCH   1   5
BRANCH   3  11
ATOM     11  CA  ASP A   2      60.727  22.768  -4.053  0.00  0.00    +0.148 C 
BRANCH  11  12
ATOM     12  C   ASP A   2      61.783  23.808  -3.683  0.00  0.00    +0.227 C 
ATOM     13  O   ASP A   2      61.920  24.174  -2.501  0.00  0.00    -0.286 OA
ENDBRANCH  11  12
BRANCH  11  14
ATOM     14  CB  ASP A   2      61.418  21.356  -4.253  0.00  0.00    +0.142 C 
BRANCH  14  15
ATOM     15  CG  ASP A   2      60.515  20.180  -4.109  0.00  0.00    +0.367 C 
ATOM     16  OD2 ASP A   2      59.299  20.505  -3.684  0.00  0.00    -0.246 OA
ATOM     17  OD1 ASP A   2      60.821  19.093  -4.529  0.00  0.00    -0.246 OA
ENDBRANCH  14  15
ENDBRANCH  11  14
ENDBRANCH   3  11
TORSDOF 8
REMARK  Name = ../refined-set-2016/2tmn/2tmn_pocket.pdb
REMARK  145 active torsions:
REMARK  status: ('A' for Active; 'I' for Inactive)
REMARK    1  A    between atoms: _1  and  _3
REMARK    2  A    between atoms: _3  and  _4
REMARK    3  A    between atoms: _3  and  _6
REMARK    4  A    between atoms: _6  and  _7
REMARK    5  A    between atoms: _12  and  _13
REMARK    6  A    between atoms: _15  and  _17
REMARK    7  A    between atoms: _17  and  _18
REMARK    8  A    between atoms: _17  and  _20
REMARK    9  A    between atoms: _20  and  _21
REMARK   10  A    between atoms: _26  and  _28
REMARK   11  A    between atoms: _28  and  _29
REMARK   12  A    between atoms: _28  and  _31
REMARK   13  A    between atoms: _31  and  _32
REMARK   14  A    between atoms: _37  and  _39
REMARK   15  A    between atoms: _39  and  _40
REMARK   16  A    between atoms: _43  and  _45
REMARK   17  A    between atoms: _45  and  _46
REMARK   18  A    between atoms: _45  and  _48
REMARK   19  A    between atoms: _48  and  _49
REMARK   20  A    between atoms: _55  and  _57
REMARK   21  A    between atoms: _57  and  _58
REMARK   22  A    between atoms: _57  and  _60
REMARK   23  A    between atoms: _60  and  _61
REMARK   24  A    between atoms: _71  and  _73
REMARK   25  A    between atoms: _73  and  _74
REMARK   26  A    between atoms: _73  and  _76
REMARK   27  A    between atoms: _76  and  _77
REMARK   28  A    between atoms: _82  and  _84
REMARK   29  A    between atoms: _84  and  _85
REMARK   30  A    between atoms: _84  and  _87
REMARK   31  A    between atoms: _90  and  _92
REMARK   32  A    between atoms: _92  and  _93
REMARK   33  A    between atoms: _92  and  _95
REMARK   34  A    between atoms: _95  and  _96
REMARK   35  A    between atoms: _101  and  _102
REMARK   36  A    between atoms: _104  and  _106
REMARK   37  A    between atoms: _106  and  _107
REMARK   38  A    between atoms: _109  and  _111
REMARK   39  A    between atoms: _111  and  _112
REMARK   40  A    between atoms: _111  and  _114
REMARK   41  A    between atoms: _114  and  _115
REMARK   42  A    between atoms: _121  and  _123
REMARK   43  A    between atoms: _123  and  _124
REMARK   44  A    between atoms: _123  and  _126
REMARK   45  A    between atoms: _126  and  _127
REMARK   46  A    between atoms: _130  and  _132
REMARK   47  A    between atoms: _132  and  _133
REMARK   48  A    between atoms: _132  and  _135
REMARK   49  A    between atoms: _135  and  _136
REMARK   50  A    between atoms: _138  and  _140
REMARK   51  A    between atoms: _140  and  _141
REMARK   52  A    between atoms: _143  and  _145
REMARK   53  A    between atoms: _145  and  _146
REMARK   54  A    between atoms: _145  and  _148
REMARK   55  A    between atoms: _148  and  _149
REMARK   56  A    between atoms: _152  and  _154
REMARK   57  A    between atoms: _154  and  _155
REMARK   58  A    between atoms: _154  and  _157
REMARK   59  A    between atoms: _160  and  _162
REMARK   60  A    between atoms: _162  and  _163
REMARK   61  A    between atoms: _162  and  _165
REMARK   62  A    between atoms: _168  and  _170
REMARK   63  A    between atoms: _170  and  _171
REMARK   64  A    between atoms: _174  and  _176
REMARK   65  A    between atoms: _176  and  _177
REMARK   66  A    between atoms: _176  and  _179
REMARK   67  A    between atoms: _179  and  _180
REMARK   68  A    between atoms: _184  and  ZN_365
REMARK   69  A    between atoms: _185  and  _187
REMARK   70  A    between atoms: _187  and  _188
REMARK   71  A    between atoms: _187  and  _190
REMARK   72  A    between atoms: _190  and  _191
REMARK   73  A    between atoms: _191  and  _192
REMARK   74  A    between atoms: _195  and  _197
REMARK   75  A    between atoms: _197  and  _198
REMARK   76  A    between atoms: _197  and  _200
REMARK   77  A    between atoms: _200  and  _201
REMARK   78  A    between atoms: _204  and  _206
REMARK   79  A    between atoms: _206  and  _207
REMARK   80  A    between atoms: _206  and  _209
REMARK   81  A    between atoms: _209  and  _210
REMARK   82  A    between atoms: _214  and  ZN_365
REMARK   83  A    between atoms: _215  and  _217
REMARK   84  A    between atoms: _217  and  _218
REMARK   85  A    between atoms: _217  and  _220
REMARK   86  A    between atoms: _220  and  _221
REMARK   87  A    between atoms: _226  and  _227
REMARK   88  A    between atoms: _229  and  _231
REMARK   89  A    between atoms: _231  and  _232
REMARK   90  A    between atoms: _231  and  _234
REMARK   91  A    between atoms: _234  and  _235
REMARK   92  A    between atoms: _240  and  _242
REMARK   93  A    between atoms: _242  and  _243
REMARK   94  A    between atoms: _242  and  _245
REMARK   95  A    between atoms: _245  and  _246
REMARK   96  A    between atoms: _246  and  _247
REMARK   97  A    between atoms: _247  and  _248
REMARK   98  A    between atoms: _248  and  ZN_365
REMARK   99  A    between atoms: _250  and  _252
REMARK  100  A    between atoms: _252  and  _253
REMARK  101  A    between atoms: _252  and  _255
REMARK  102  A    between atoms: _255  and  _256
REMARK  103  A    between atoms: _258  and  _260
REMARK  104  A    between atoms: _260  and  _261
REMARK  105  A    between atoms: _260  and  _263
REMARK  106  A    between atoms: _263  and  _264
REMARK  107  A    between atoms: _267  and  _269
REMARK  108  A    between atoms: _269  and  _270
REMARK  109  A    between atoms: _269  and  _272
REMARK  110  A    between atoms: _272  and  _273
REMARK  111  A    between atoms: _276  and  _278
REMARK  112  A    between atoms: _278  and  _279
REMARK  113  A    between atoms: _281  and  _283
REMARK  114  A    between atoms: _283  and  _284
REMARK  115  A    between atoms: _283  and  _286
REMARK  116  A    between atoms: _289  and  _291
REMARK  117  A    between atoms: _291  and  _292
REMARK  118  A    between atoms: _291  and  _294
REMARK  119  A    between atoms: _294  and  _295
REMARK  120  A    between atoms: _300  and  _301
REMARK  121  A    between atoms: _303  and  _305
REMARK  122  A    between atoms: _305  and  _306
REMARK  123  A    between atoms: _305  and  _308
REMARK  124  A    between atoms: _308  and  _309
REMARK  125  A    between atoms: _312  and  _314
REMARK  126  A    between atoms: _314  and  _315
REMARK  127  A    between atoms: _314  and  _317
REMARK  128  A    between atoms: _317  and  _318
REMARK  129  A    between atoms: _318  and  _319
REMARK  130  A    between atoms: _319  and  _320
REMARK  131  A    between atoms: _329  and  _331
REMARK  132  A    between atoms: _331  and  _332
REMARK  133  A    between atoms: _331  and  _334
REMARK  134  A    between atoms: _334  and  _335
REMARK  135  A    between atoms: _338  and  _340
REMARK  136  A    between atoms: _340  and  _341
REMARK  137  A    between atoms: _340  and  _343
REMARK  138  A    between atoms: _346  and  _348
REMARK  139  A    between atoms: _348  and  _349
REMARK  140  A    between atoms: _348  and  _351
REMARK  141  A    between atoms: _351  and  _352
REMARK  142  A    between atoms: _357  and  _359
REMARK  143  A    between atoms: _359  and  _360
REMARK  144  A    between atoms: _359  and  _362
REMARK  145  A    between atoms: _362  and  _363
REMARK                            x       y       z     vdW  Elec       q    Type
REMARK                         _______ _______ _______ _____ _____    ______ ____
ROOT
ATOM      1  CA  ILE A   1      60.258  19.168   2.002  0.00  0.00    +0.145 C 
ENDROOT
BRANCH   1   2
ATOM      2  C   ILE A   1      59.085  18.434   2.723  0.00  0.00    +0.238 C 
ATOM      3  N   GLY A   2      58.141  19.260   3.309  0.00  0.00    -0.297 N 
ATOM      4  H   GLY A   2      58.284  20.290   3.281  0.00  0.00    +0.150 HD
ATOM      5  O   ILE A   1      59.007  17.186   2.696  0.00  0.00    -0.274 OA
BRANCH   3   6
ATOM      6  CA  GLY A   2      56.955  18.729   3.962  0.00  0.00    +0.163 C 
BRANCH   6   7
ATOM      7  C   GLY A   2      57.196  18.207   5.404  0.00  0.00    +0.229 C 
ATOM      8  O   GLY A   2      56.250  17.656   6.006  0.00  0.00    -0.286 OA
ENDBRANCH   6   7
ENDBRANCH   3   6
ENDBRANCH   1   2
BRANCH   1   9
ATOM      9  N   ILE A   1      61.610  18.815   2.436  0.00  0.00    -0.238 NA
ATOM     10  H   ILE A   1      61.943  17.843   2.273  0.00  0.00    +0.142 HD
ENDBRANCH   1   9
BRANCH   1  11
ATOM     11  CB  ILE A   1      59.974  18.972   0.494  0.00  0.00    +0.025 C 
ATOM     12  CG2 ILE A   1      58.513  19.351   0.090  0.00  0.00    +0.002 C 
BRANCH  11  13
ATOM     13  CG1 ILE A   1      61.060  19.667  -0.319  0.00  0.00    +0.002 C 
ATOM     14  CD1 ILE A   1      60.959  21.174  -0.028  0.00  0.00    +0.000 C 
ENDBRANCH  11  13
ENDBRANCH   1  11
TORSDOF 6
REMARK  Name = ../refined-set-2016/2tmn/2tmn_pocket.pdb
REMARK  145 active torsions:
REMARK  status: ('A' for Active; 'I' for Inactive)
REMARK    1  A    between atoms: _1  and  _3
REMARK    2  A    between atoms: _3  and  _4
REMARK    3  A    between atoms: _3  and  _6
REMARK    4  A    between atoms: _6  and  _7
REMARK    5  A    between atoms: _12  and  _13
REMARK    6  A    between atoms: _15  and  _17
REMARK    7  A    between atoms: _17  and  _18
REMARK    8  A    between atoms: _17  and  _20
REMARK    9  A    between atoms: _20  and  _21
REMARK   10  A    between atoms: _26  and  _28
REMARK   11  A    between atoms: _28  and  _29
REMARK   12  A    between atoms: _28  and  _31
REMARK   13  A    between atoms: _31  and  _32
REMARK   14  A    between atoms: _37  and  _39
REMARK   15  A    between atoms: _39  and  _40
REMARK   16  A    between atoms: _43  and  _45
REMARK   17  A    between atoms: _45  and  _46
REMARK   18  A    between atoms: _45  and  _48
REMARK   19  A    between atoms: _48  and  _49
REMARK   20  A    between atoms: _55  and  _57
REMARK   21  A    between atoms: _57  and  _58
REMARK   22  A    between atoms: _57  and  _60
REMARK   23  A    between atoms: _60  and  _61
REMARK   24  A    between atoms: _71  and  _73
REMARK   25  A    between atoms: _73  and  _74
REMARK   26  A    between atoms: _73  and  _76
REMARK   27  A    between atoms: _76  and  _77
REMARK   28  A    between atoms: _82  and  _84
REMARK   29  A    between atoms: _84  and  _85
REMARK   30  A    between atoms: _84  and  _87
REMARK   31  A    between atoms: _90  and  _92
REMARK   32  A    between atoms: _92  and  _93
REMARK   33  A    between atoms: _92  and  _95
REMARK   34  A    between atoms: _95  and  _96
REMARK   35  A    between atoms: _101  and  _102
REMARK   36  A    between atoms: _104  and  _106
REMARK   37  A    between atoms: _106  and  _107
REMARK   38  A    between atoms: _109  and  _111
REMARK   39  A    between atoms: _111  and  _112
REMARK   40  A    between atoms: _111  and  _114
REMARK   41  A    between atoms: _114  and  _115
REMARK   42  A    between atoms: _121  and  _123
REMARK   43  A    between atoms: _123  and  _124
REMARK   44  A    between atoms: _123  and  _126
REMARK   45  A    between atoms: _126  and  _127
REMARK   46  A    between atoms: _130  and  _132
REMARK   47  A    between atoms: _132  and  _133
REMARK   48  A    between atoms: _132  and  _135
REMARK   49  A    between atoms: _135  and  _136
REMARK   50  A    between atoms: _138  and  _140
REMARK   51  A    between atoms: _140  and  _141
REMARK   52  A    between atoms: _143  and  _145
REMARK   53  A    between atoms: _145  and  _146
REMARK   54  A    between atoms: _145  and  _148
REMARK   55  A    between atoms: _148  and  _149
REMARK   56  A    between atoms: _152  and  _154
REMARK   57  A    between atoms: _154  and  _155
REMARK   58  A    between atoms: _154  and  _157
REMARK   59  A    between atoms: _160  and  _162
REMARK   60  A    between atoms: _162  and  _163
REMARK   61  A    between atoms: _162  and  _165
REMARK   62  A    between atoms: _168  and  _170
REMARK   63  A    between atoms: _170  and  _171
REMARK   64  A    between atoms: _174  and  _176
REMARK   65  A    between atoms: _176  and  _177
REMARK   66  A    between atoms: _176  and  _179
REMARK   67  A    between atoms: _179  and  _180
REMARK   68  A    between atoms: _184  and  ZN_365
REMARK   69  A    between atoms: _185  and  _187
REMARK   70  A    between atoms: _187  and  _188
REMARK   71  A    between atoms: _187  and  _190
REMARK   72  A    between atoms: _190  and  _191
REMARK   73  A    between atoms: _191  and  _192
REMARK   74  A    between atoms: _195  and  _197
REMARK   75  A    between atoms: _197  and  _198
REMARK   76  A    between atoms: _197  and  _200
REMARK   77  A    between atoms: _200  and  _201
REMARK   78  A    between atoms: _204  and  _206
REMARK   79  A    between atoms: _206  and  _207
REMARK   80  A    between atoms: _206  and  _209
REMARK   81  A    between atoms: _209  and  _210
REMARK   82  A    between atoms: _214  and  ZN_365
REMARK   83  A    between atoms: _215  and  _217
REMARK   84  A    between atoms: _217  and  _218
REMARK   85  A    between atoms: _217  and  _220
REMARK   86  A    between atoms: _220  and  _221
REMARK   87  A    between atoms: _226  and  _227
REMARK   88  A    between atoms: _229  and  _231
REMARK   89  A    between atoms: _231  and  _232
REMARK   90  A    between atoms: _231  and  _234
REMARK   91  A    between atoms: _234  and  _235
REMARK   92  A    between atoms: _240  and  _242
REMARK   93  A    between atoms: _242  and  _243
REMARK   94  A    between atoms: _242  and  _245
REMARK   95  A    between atoms: _245  and  _246
REMARK   96  A    between atoms: _246  and  _247
REMARK   97  A    between atoms: _247  and  _248
REMARK   98  A    between atoms: _248  and  ZN_365
REMARK   99  A    between atoms: _250  and  _252
REMARK  100  A    between atoms: _252  and  _253
REMARK  101  A    between atoms: _252  and  _255
REMARK  102  A    between atoms: _255  and  _256
REMARK  103  A    between atoms: _258  and  _260
REMARK  104  A    between atoms: _260  and  _261
REMARK  105  A    between atoms: _260  and  _263
REMARK  106  A    between atoms: _263  and  _264
REMARK  107  A    between atoms: _267  and  _269
REMARK  108  A    between atoms: _269  and  _270
REMARK  109  A    between atoms: _269  and  _272
REMARK  110  A    between atoms: _272  and  _273
REMARK  111  A    between atoms: _276  and  _278
REMARK  112  A    between atoms: _278  and  _279
REMARK  113  A    between atoms: _281  and  _283
REMARK  114  A    between atoms: _283  and  _284
REMARK  115  A    between atoms: _283  and  _286
REMARK  116  A    between atoms: _289  and  _291
REMARK  117  A    between atoms: _291  and  _292
REMARK  118  A    between atoms: _291  and  _294
REMARK  119  A    between atoms: _294  and  _295
REMARK  120  A    between atoms: _300  and  _301
REMARK  121  A    between atoms: _303  and  _305
REMARK  122  A    between atoms: _305  and  _306
REMARK  123  A    between atoms: _305  and  _308
REMARK  124  A    between atoms: _308  and  _309
REMARK  125  A    between atoms: _312  and  _314
REMARK  126  A    between atoms: _314  and  _315
REMARK  127  A    between atoms: _314  and  _317
REMARK  128  A    between atoms: _317  and  _318
REMARK  129  A    between atoms: _318  and  _319
REMARK  130  A    between atoms: _319  and  _320
REMARK  131  A    between atoms: _329  and  _331
REMARK  132  A    between atoms: _331  and  _332
REMARK  133  A    between atoms: _331  and  _334
REMARK  134  A    between atoms: _334  and  _335
REMARK  135  A    between atoms: _338  and  _340
REMARK  136  A    between atoms: _340  and  _341
REMARK  137  A    between atoms: _340  and  _343
REMARK  138  A    between atoms: _346  and  _348
REMARK  139  A    between atoms: _348  and  _349
REMARK  140  A    between atoms: _348  and  _351
REMARK  141  A    between atoms: _351  and  _352
REMARK  142  A    between atoms: _357  and  _359
REMARK  143  A    between atoms: _359  and  _360
REMARK  144  A    between atoms: _359  and  _362
REMARK  145  A    between atoms: _362  and  _363
REMARK                            x       y       z     vdW  Elec       q    Type
REMARK                         _______ _______ _______ _____ _____    ______ ____
ROOT
ATOM      1  CA  TYR A   2      54.398  14.577   7.171  0.00  0.00    +0.141 C 
ENDROOT
BRANCH   1   4
ATOM      2  C   VAL A   1      53.128  16.558   7.827  0.00  0.00    +0.238 C 
ATOM      3  O   VAL A   1      52.017  15.930   7.758  0.00  0.00    -0.274 OA
ATOM      4  N   TYR A   2      54.294  15.970   7.559  0.00  0.00    -0.298 N 
ATOM      5  H   TYR A   2      55.165  16.534   7.631  0.00  0.00    +0.150 HD
BRANCH   2   6
ATOM      6  CA  VAL A   1      53.122  18.054   8.160  0.00  0.00    +0.145 C 
BRANCH   6   7
ATOM      7  CB  VAL A   1      52.304  18.813   7.075  0.00  0.00    +0.025 C 
ATOM      8  CG2 VAL A   1      51.931  20.225   7.565  0.00  0.00    +0.002 C 
ATOM      9  CG1 VAL A   1      52.787  18.790   5.602  0.00  0.00    +0.002 C 
ENDBRANCH   6   7
BRANCH   6  10
ATOM     10  N   VAL A   1      54.464  18.713   8.343  0.00  0.00    -0.238 NA
ATOM     11  H   VAL A   1      55.104  18.759   7.525  0.00  0.00    +0.142 HD
ENDBRANCH   6  10
ENDBRANCH   2   6
ENDBRANCH   1   4
BRANCH   1  12
ATOM     12  C   TYR A   2      54.565  13.659   8.372  0.00  0.00    +0.227 C 
ATOM     13  O   TYR A   2      55.291  14.080   9.264  0.00  0.00    -0.286 OA
ENDBRANCH   1  12
BRANCH   1  14
ATOM     14  CB  TYR A   2      55.509  14.542   6.165  0.00  0.00    +0.054 C 
BRANCH  14  15
ATOM     15  CG  TYR A   2      55.688  13.227   5.484  0.00  0.00    -0.020 A 
ATOM     16  CD2 TYR A   2      56.878  12.520   5.677  0.00  0.00    -0.001 A 
ATOM     17  CE2 TYR A   2      57.054  11.274   5.072  0.00  0.00    +0.036 A 
ATOM     18  CZ  TYR A   2      56.061  10.816   4.219  0.00  0.00    +0.134 A 
ATOM     19  CE1 TYR A   2      54.870  11.520   4.007  0.00  0.00    +0.036 A 
ATOM     20  CD1 TYR A   2      54.708  12.771   4.619  0.00  0.00    -0.001 A 
BRANCH  18  21
ATOM     21  OH  TYR A   2      56.243   9.632   3.589  0.00  0.00    -0.506 OA
ATOM     22  HH  TYR A   2      57.056   9.680   3.027  0.00  0.00    +0.292 HD
ENDBRANCH  18  21
ENDBRANCH  14  15
ENDBRANCH   1  14
TORSDOF 8
REMARK  Name = ../refined-set-2016/2tmn/2tmn_pocket.pdb
REMARK  145 active torsions:
REMARK  status: ('A' for Active; 'I' for Inactive)
REMARK    1  A    between atoms: _1  and  _3
REMARK    2  A    between atoms: _3  and  _4
REMARK    3  A    between atoms: _3  and  _6
REMARK    4  A    between atoms: _6  and  _7
REMARK    5  A    between atoms: _12  and  _13
REMARK    6  A    between atoms: _15  and  _17
REMARK    7  A    between atoms: _17  and  _18
REMARK    8  A    between atoms: _17  and  _20
REMARK    9  A    between atoms: _20  and  _21
REMARK   10  A    between atoms: _26  and  _28
REMARK   11  A    between atoms: _28  and  _29
REMARK   12  A    between atoms: _28  and  _31
REMARK   13  A    between atoms: _31  and  _32
REMARK   14  A    between atoms: _37  and  _39
REMARK   15  A    between atoms: _39  and  _40
REMARK   16  A    between atoms: _43  and  _45
REMARK   17  A    between atoms: _45  and  _46
REMARK   18  A    between atoms: _45  and  _48
REMARK   19  A    between atoms: _48  and  _49
REMARK   20  A    between atoms: _55  and  _57
REMARK   21  A    between atoms: _57  and  _58
REMARK   22  A    between atoms: _57  and  _60
REMARK   23  A    between atoms: _60  and  _61
REMARK   24  A    between atoms: _71  and  _73
REMARK   25  A    between atoms: _73  and  _74
REMARK   26  A    between atoms: _73  and  _76
REMARK   27  A    between atoms: _76  and  _77
REMARK   28  A    between atoms: _82  and  _84
REMARK   29  A    between atoms: _84  and  _85
REMARK   30  A    between atoms: _84  and  _87
REMARK   31  A    between atoms: _90  and  _92
REMARK   32  A    between atoms: _92  and  _93
REMARK   33  A    between atoms: _92  and  _95
REMARK   34  A    between atoms: _95  and  _96
REMARK   35  A    between atoms: _101  and  _102
REMARK   36  A    between atoms: _104  and  _106
REMARK   37  A    between atoms: _106  and  _107
REMARK   38  A    between atoms: _109  and  _111
REMARK   39  A    between atoms: _111  and  _112
REMARK   40  A    between atoms: _111  and  _114
REMARK   41  A    between atoms: _114  and  _115
REMARK   42  A    between atoms: _121  and  _123
REMARK   43  A    between atoms: _123  and  _124
REMARK   44  A    between atoms: _123  and  _126
REMARK   45  A    between atoms: _126  and  _127
REMARK   46  A    between atoms: _130  and  _132
REMARK   47  A    between atoms: _132  and  _133
REMARK   48  A    between atoms: _132  and  _135
REMARK   49  A    between atoms: _135  and  _136
REMARK   50  A    between atoms: _138  and  _140
REMARK   51  A    between atoms: _140  and  _141
REMARK   52  A    between atoms: _143  and  _145
REMARK   53  A    between atoms: _145  and  _146
REMARK   54  A    between atoms: _145  and  _148
REMARK   55  A    between atoms: _148  and  _149
REMARK   56  A    between atoms: _152  and  _154
REMARK   57  A    between atoms: _154  and  _155
REMARK   58  A    between atoms: _154  and  _157
REMARK   59  A    between atoms: _160  and  _162
REMARK   60  A    between atoms: _162  and  _163
REMARK   61  A    between atoms: _162  and  _165
REMARK   62  A    between atoms: _168  and  _170
REMARK   63  A    between atoms: _170  and  _171
REMARK   64  A    between atoms: _174  and  _176
REMARK   65  A    between atoms: _176  and  _177
REMARK   66  A    between atoms: _176  and  _179
REMARK   67  A    between atoms: _179  and  _180
REMARK   68  A    between atoms: _184  and  ZN_365
REMARK   69  A    between atoms: _185  and  _187
REMARK   70  A    between atoms: _187  and  _188
REMARK   71  A    between atoms: _187  and  _190
REMARK   72  A    between atoms: _190  and  _191
REMARK   73  A    between atoms: _191  and  _192
REMARK   74  A    between atoms: _195  and  _197
REMARK   75  A    between atoms: _197  and  _198
REMARK   76  A    between atoms: _197  and  _200
REMARK   77  A    between atoms: _200  and  _201
REMARK   78  A    between atoms: _204  and  _206
REMARK   79  A    between atoms: _206  and  _207
REMARK   80  A    between atoms: _206  and  _209
REMARK   81  A    between atoms: _209  and  _210
REMARK   82  A    between atoms: _214  and  ZN_365
REMARK   83  A    between atoms: _215  and  _217
REMARK   84  A    between atoms: _217  and  _218
REMARK   85  A    between atoms: _217  and  _220
REMARK   86  A    between atoms: _220  and  _221
REMARK   87  A    between atoms: _226  and  _227
REMARK   88  A    between atoms: _229  and  _231
REMARK   89  A    between atoms: _231  and  _232
REMARK   90  A    between atoms: _231  and  _234
REMARK   91  A    between atoms: _234  and  _235
REMARK   92  A    between atoms: _240  and  _242
REMARK   93  A    between atoms: _242  and  _243
REMARK   94  A    between atoms: _242  and  _245
REMARK   95  A    between atoms: _245  and  _246
REMARK   96  A    between atoms: _246  and  _247
REMARK   97  A    between atoms: _247  and  _248
REMARK   98  A    between atoms: _248  and  ZN_365
REMARK   99  A    between atoms: _250  and  _252
REMARK  100  A    between atoms: _252  and  _253
REMARK  101  A    between atoms: _252  and  _255
REMARK  102  A    between atoms: _255  and  _256
REMARK  103  A    between atoms: _258  and  _260
REMARK  104  A    between atoms: _260  and  _261
REMARK  105  A    between atoms: _260  and  _263
REMARK  106  A    between atoms: _263  and  _264
REMARK  107  A    between atoms: _267  and  _269
REMARK  108  A    between atoms: _269  and  _270
REMARK  109  A    between atoms: _269  and  _272
REMARK  110  A    between atoms: _272  and  _273
REMARK  111  A    between atoms: _276  and  _278
REMARK  112  A    between atoms: _278  and  _279
REMARK  113  A    between atoms: _281  and  _283
REMARK  114  A    between atoms: _283  and  _284
REMARK  115  A    between atoms: _283  and  _286
REMARK  116  A    between atoms: _289  and  _291
REMARK  117  A    between atoms: _291  and  _292
REMARK  118  A    between atoms: _291  and  _294
REMARK  119  A    between atoms: _294  and  _295
REMARK  120  A    between atoms: _300  and  _301
REMARK  121  A    between atoms: _303  and  _305
REMARK  122  A    between atoms: _305  and  _306
REMARK  123  A    between atoms: _305  and  _308
REMARK  124  A    between atoms: _308  and  _309
REMARK  125  A    between atoms: _312  and  _314
REMARK  126  A    between atoms: _314  and  _315
REMARK  127  A    between atoms: _314  and  _317
REMARK  128  A    between atoms: _317  and  _318
REMARK  129  A    between atoms: _318  and  _319
REMARK  130  A    between atoms: _319  and  _320
REMARK  131  A    between atoms: _329  and  _331
REMARK  132  A    between atoms: _331  and  _332
REMARK  133  A    between atoms: _331  and  _334
REMARK  134  A    between atoms: _334  and  _335
REMARK  135  A    between atoms: _338  and  _340
REMARK  136  A    between atoms: _340  and  _341
REMARK  137  A    between atoms: _340  and  _343
REMARK  138  A    between atoms: _346  and  _348
REMARK  139  A    between atoms: _348  and  _349
REMARK  140  A    between atoms: _348  and  _351
REMARK  141  A    between atoms: _351  and  _352
REMARK  142  A    between atoms: _357  and  _359
REMARK  143  A    between atoms: _359  and  _360
REMARK  144  A    between atoms: _359  and  _362
REMARK  145  A    between atoms: _362  and  _363
REMARK                            x       y       z     vdW  Elec       q    Type
REMARK                         _______ _______ _______ _____ _____    ______ ____
ROOT
ATOM      1  CA  ARG A   2      61.672  14.630   0.009  0.00  0.00    +0.137 C 
ENDROOT
BRANCH   1   3
ATOM      2  C   LEU A   1      59.627  13.574   0.955  0.00  0.00    +0.238 C 
ATOM      3  N   ARG A   2      60.541  14.562   0.895  0.00  0.00    -0.298 N 
ATOM      4  H   ARG A   2      60.416  15.355   1.556  0.00  0.00    +0.150 HD
ATOM      5  O   LEU A   1      59.634  12.587   0.200  0.00  0.00    -0.274 OA
BRANCH   2   6
ATOM      6  CA  LEU A   1      58.526  13.794   2.019  0.00  0.00    +0.145 C 
BRANCH   6   7
ATOM      7  N   LEU A   1      58.991  14.409   3.224  0.00  0.00    -0.238 NA
ATOM      8  H   LEU A   1      58.781  15.409   3.421  0.00  0.00    +0.142 HD
ENDBRANCH   6   7
BRANCH   6   9
ATOM      9  CB  LEU A   1      57.350  14.685   1.534  0.00  0.00    +0.026 C 
BRANCH   9  10
ATOM     10  CG  LEU A   1      56.754  14.341   0.219  0.00  0.00    +0.002 C 
ATOM     11  CD2 LEU A   1      56.006  13.094   0.624  0.00  0.00    +0.000 C 
ATOM     12  CD1 LEU A   1      55.622  15.355  -0.127  0.00  0.00    +0.000 C 
ENDBRANCH   9  10
ENDBRANCH   6   9
ENDBRANCH   2   6
ENDBRANCH   1   3
BRANCH   1  13
ATOM     13  C   ARG A   2      62.760  15.410   0.726  0.00  0.00    +0.227 C 
ATOM     14  O   ARG A   2      62.465  16.208   1.663  0.00  0.00    -0.286 OA
ENDBRANCH   1  13
BRANCH   1  15
ATOM     15  CB  ARG A   2      61.431  15.364  -1.315  0.00  0.00    +0.031 C 
BRANCH  15  16
ATOM     16  CG  ARG A   2      60.462  14.757  -2.249  0.00  0.00    +0.045 C 
BRANCH  16  17
ATOM     17  CD  ARG A   2      60.403  15.567  -3.563  0.00  0.00    +0.174 C 
BRANCH  17  18
ATOM     18  NE  ARG A   2      59.580  16.761  -3.527  0.00  0.00    -0.265 N 
ATOM     19  CZ  ARG A   2      58.182  16.814  -3.501  0.00  0.00    +0.342 C 
ATOM     20  NH2 ARG A   2      57.407  15.747  -3.422  0.00  0.00    -0.292 N 
ATOM     21 HH21 ARG A   2      57.831  14.799  -3.375  0.00  0.00    +0.255 HD
ATOM     22 HH22 ARG A   2      56.373  15.855  -3.407  0.00  0.00    +0.255 HD
ATOM     23  NH1 ARG A   2      57.537  17.981  -3.544  0.00  0.00    -0.292 N 
ATOM     24 HH11 ARG A   2      56.497  18.002  -3.524  0.00  0.00    +0.255 HD
ATOM     25 HH12 ARG A   2      58.074  18.870  -3.598  0.00  0.00    +0.255 HD
ATOM     26  HE  ARG A   2      60.081  17.672  -3.520  0.00  0.00    +0.259 HD
ENDBRANCH  17  18
ENDBRANCH  16  17
ENDBRANCH  15  16
ENDBRANCH   1  15
TORSDOF 10
REMARK  Name = ../refined-set-2016/2tmn/2tmn_pocket.pdb
REMARK  145 active torsions:
REMARK  status: ('A' for Active; 'I' for Inactive)
REMARK    1  A    between atoms: _1  and  _3
REMARK    2  A    between atoms: _3  and  _4
REMARK    3  A    between atoms: _3  and  _6
REMARK    4  A    between atoms: _6  and  _7
REMARK    5  A    between atoms: _12  and  _13
REMARK    6  A    between atoms: _15  and  _17
REMARK    7  A    between atoms: _17  and  _18
REMARK    8  A    between atoms: _17  and  _20
REMARK    9  A    between atoms: _20  and  _21
REMARK   10  A    between atoms: _26  and  _28
REMARK   11  A    between atoms: _28  and  _29
REMARK   12  A    between atoms: _28  and  _31
REMARK   13  A    between atoms: _31  and  _32
REMARK   14  A    between atoms: _37  and  _39
REMARK   15  A    between atoms: _39  and  _40
REMARK   16  A    between atoms: _43  and  _45
REMARK   17  A    between atoms: _45  and  _46
REMARK   18  A    between atoms: _45  and  _48
REMARK   19  A    between atoms: _48  and  _49
REMARK   20  A    between atoms: _55  and  _57
REMARK   21  A    between atoms: _57  and  _58
REMARK   22  A    between atoms: _57  and  _60
REMARK   23  A    between atoms: _60  and  _61
REMARK   24  A    between atoms: _71  and  _73
REMARK   25  A    between atoms: _73  and  _74
REMARK   26  A    between atoms: _73  and  _76
REMARK   27  A    between atoms: _76  and  _77
REMARK   28  A    between atoms: _82  and  _84
REMARK   29  A    between atoms: _84  and  _85
REMARK   30  A    between atoms: _84  and  _87
REMARK   31  A    between atoms: _90  and  _92
REMARK   32  A    between atoms: _92  and  _93
REMARK   33  A    between atoms: _92  and  _95
REMARK   34  A    between atoms: _95  and  _96
REMARK   35  A    between atoms: _101  and  _102
REMARK   36  A    between atoms: _104  and  _106
REMARK   37  A    between atoms: _106  and  _107
REMARK   38  A    between atoms: _109  and  _111
REMARK   39  A    between atoms: _111  and  _112
REMARK   40  A    between atoms: _111  and  _114
REMARK   41  A    between atoms: _114  and  _115
REMARK   42  A    between atoms: _121  and  _123
REMARK   43  A    between atoms: _123  and  _124
REMARK   44  A    between atoms: _123  and  _126
REMARK   45  A    between atoms: _126  and  _127
REMARK   46  A    between atoms: _130  and  _132
REMARK   47  A    between atoms: _132  and  _133
REMARK   48  A    between atoms: _132  and  _135
REMARK   49  A    between atoms: _135  and  _136
REMARK   50  A    between atoms: _138  and  _140
REMARK   51  A    between atoms: _140  and  _141
REMARK   52  A    between atoms: _143  and  _145
REMARK   53  A    between atoms: _145  and  _146
REMARK   54  A    between atoms: _145  and  _148
REMARK   55  A    between atoms: _148  and  _149
REMARK   56  A    between atoms: _152  and  _154
REMARK   57  A    between atoms: _154  and  _155
REMARK   58  A    between atoms: _154  and  _157
REMARK   59  A    between atoms: _160  and  _162
REMARK   60  A    between atoms: _162  and  _163
REMARK   61  A    between atoms: _162  and  _165
REMARK   62  A    between atoms: _168  and  _170
REMARK   63  A    between atoms: _170  and  _171
REMARK   64  A    between atoms: _174  and  _176
REMARK   65  A    between atoms: _176  and  _177
REMARK   66  A    between atoms: _176  and  _179
REMARK   67  A    between atoms: _179  and  _180
REMARK   68  A    between atoms: _184  and  ZN_365
REMARK   69  A    between atoms: _185  and  _187
REMARK   70  A    between atoms: _187  and  _188
REMARK   71  A    between atoms: _187  and  _190
REMARK   72  A    between atoms: _190  and  _191
REMARK   73  A    between atoms: _191  and  _192
REMARK   74  A    between atoms: _195  and  _197
REMARK   75  A    between atoms: _197  and  _198
REMARK   76  A    between atoms: _197  and  _200
REMARK   77  A    between atoms: _200  and  _201
REMARK   78  A    between atoms: _204  and  _206
REMARK   79  A    between atoms: _206  and  _207
REMARK   80  A    between atoms: _206  and  _209
REMARK   81  A    between atoms: _209  and  _210
REMARK   82  A    between atoms: _214  and  ZN_365
REMARK   83  A    between atoms: _215  and  _217
REMARK   84  A    between atoms: _217  and  _218
REMARK   85  A    between atoms: _217  and  _220
REMARK   86  A    between atoms: _220  and  _221
REMARK   87  A    between atoms: _226  and  _227
REMARK   88  A    between atoms: _229  and  _231
REMARK   89  A    between atoms: _231  and  _232
REMARK   90  A    between atoms: _231  and  _234
REMARK   91  A    between atoms: _234  and  _235
REMARK   92  A    between atoms: _240  and  _242
REMARK   93  A    between atoms: _242  and  _243
REMARK   94  A    between atoms: _242  and  _245
REMARK   95  A    between atoms: _245  and  _246
REMARK   96  A    between atoms: _246  and  _247
REMARK   97  A    between atoms: _247  and  _248
REMARK   98  A    between atoms: _248  and  ZN_365
REMARK   99  A    between atoms: _250  and  _252
REMARK  100  A    between atoms: _252  and  _253
REMARK  101  A    between atoms: _252  and  _255
REMARK  102  A    between atoms: _255  and  _256
REMARK  103  A    between atoms: _258  and  _260
REMARK  104  A    between atoms: _260  and  _261
REMARK  105  A    between atoms: _260  and  _263
REMARK  106  A    between atoms: _263  and  _264
REMARK  107  A    between atoms: _267  and  _269
REMARK  108  A    between atoms: _269  and  _270
REMARK  109  A    between atoms: _269  and  _272
REMARK  110  A    between atoms: _272  and  _273
REMARK  111  A    between atoms: _276  and  _278
REMARK  112  A    between atoms: _278  and  _279
REMARK  113  A    between atoms: _281  and  _283
REMARK  114  A    between atoms: _283  and  _284
REMARK  115  A    between atoms: _283  and  _286
REMARK  116  A    between atoms: _289  and  _291
REMARK  117  A    between atoms: _291  and  _292
REMARK  118  A    between atoms: _291  and  _294
REMARK  119  A    between atoms: _294  and  _295
REMARK  120  A    between atoms: _300  and  _301
REMARK  121  A    between atoms: _303  and  _305
REMARK  122  A    between atoms: _305  and  _306
REMARK  123  A    between atoms: _305  and  _308
REMARK  124  A    between atoms: _308  and  _309
REMARK  125  A    between atoms: _312  and  _314
REMARK  126  A    between atoms: _314  and  _315
REMARK  127  A    between atoms: _314  and  _317
REMARK  128  A    between atoms: _317  and  _318
REMARK  129  A    between atoms: _318  and  _319
REMARK  130  A    between atoms: _319  and  _320
REMARK  131  A    between atoms: _329  and  _331
REMARK  132  A    between atoms: _331  and  _332
REMARK  133  A    between atoms: _331  and  _334
REMARK  134  A    between atoms: _334  and  _335
REMARK  135  A    between atoms: _338  and  _340
REMARK  136  A    between atoms: _340  and  _341
REMARK  137  A    between atoms: _340  and  _343
REMARK  138  A    between atoms: _346  and  _348
REMARK  139  A    between atoms: _348  and  _349
REMARK  140  A    between atoms: _348  and  _351
REMARK  141  A    between atoms: _351  and  _352
REMARK  142  A    between atoms: _357  and  _359
REMARK  143  A    between atoms: _359  and  _360
REMARK  144  A    between atoms: _359  and  _362
REMARK  145  A    between atoms: _362  and  _363
REMARK                            x       y       z     vdW  Elec       q    Type
REMARK                         _______ _______ _______ _____ _____    ______ ____
ROOT
ATOM      1  CA  ASP A   1      54.070  10.107 -11.988  0.00  0.00    +0.144 C 
ENDROOT
BRANCH   1   2
ATOM      2  N   ASP A   1      53.918   8.747 -12.503  0.00  0.00    -0.239 NA
ATOM      3  H   ASP A   1      53.032   8.244 -12.292  0.00  0.00    +0.142 HD
ENDBRANCH   1   2
BRANCH   1   4
ATOM      4  C   ASP A   1      54.455  11.056 -13.060  0.00  0.00    +0.225 C 
ATOM      5  O   ASP A   1      55.377  11.854 -12.955  0.00  0.00    -0.287 OA
ENDBRANCH   1   4
BRANCH   1   6
ATOM      6  CB  ASP A   1      55.142  10.082 -10.903  0.00  0.00    +0.139 C 
BRANCH   6   7
ATOM      7  CG  ASP A   1      55.328  11.426 -10.309  0.00  0.00    +0.367 C 
ATOM      8  OD2 ASP A   1      56.520  11.610  -9.926  0.00  0.00    -0.246 OA
ATOM      9  OD1 ASP A   1      54.450  12.209 -10.069  0.00  0.00    -0.246 OA
ENDBRANCH   6   7
ENDBRANCH   1   6
TORSDOF 4
REMARK  Name = ../refined-set-2016/2tmn/2tmn_pocket.pdb
REMARK  145 active torsions:
REMARK  status: ('A' for Active; 'I' for Inactive)
REMARK    1  A    between atoms: _1  and  _3
REMARK    2  A    between atoms: _3  and  _4
REMARK    3  A    between atoms: _3  and  _6
REMARK    4  A    between atoms: _6  and  _7
REMARK    5  A    between atoms: _12  and  _13
REMARK    6  A    between atoms: _15  and  _17
REMARK    7  A    between atoms: _17  and  _18
REMARK    8  A    between atoms: _17  and  _20
REMARK    9  A    between atoms: _20  and  _21
REMARK   10  A    between atoms: _26  and  _28
REMARK   11  A    between atoms: _28  and  _29
REMARK   12  A    between atoms: _28  and  _31
REMARK   13  A    between atoms: _31  and  _32
REMARK   14  A    between atoms: _37  and  _39
REMARK   15  A    between atoms: _39  and  _40
REMARK   16  A    between atoms: _43  and  _45
REMARK   17  A    between atoms: _45  and  _46
REMARK   18  A    between atoms: _45  and  _48
REMARK   19  A    between atoms: _48  and  _49
REMARK   20  A    between atoms: _55  and  _57
REMARK   21  A    between atoms: _57  and  _58
REMARK   22  A    between atoms: _57  and  _60
REMARK   23  A    between atoms: _60  and  _61
REMARK   24  A    between atoms: _71  and  _73
REMARK   25  A    between atoms: _73  and  _74
REMARK   26  A    between atoms: _73  and  _76
REMARK   27  A    between atoms: _76  and  _77
REMARK   28  A    between atoms: _82  and  _84
REMARK   29  A    between atoms: _84  and  _85
REMARK   30  A    between atoms: _84  and  _87
REMARK   31  A    between atoms: _90  and  _92
REMARK   32  A    between atoms: _92  and  _93
REMARK   33  A    between atoms: _92  and  _95
REMARK   34  A    between atoms: _95  and  _96
REMARK   35  A    between atoms: _101  and  _102
REMARK   36  A    between atoms: _104  and  _106
REMARK   37  A    between atoms: _106  and  _107
REMARK   38  A    between atoms: _109  and  _111
REMARK   39  A    between atoms: _111  and  _112
REMARK   40  A    between atoms: _111  and  _114
REMARK   41  A    between atoms: _114  and  _115
REMARK   42  A    between atoms: _121  and  _123
REMARK   43  A    between atoms: _123  and  _124
REMARK   44  A    between atoms: _123  and  _126
REMARK   45  A    between atoms: _126  and  _127
REMARK   46  A    between atoms: _130  and  _132
REMARK   47  A    between atoms: _132  and  _133
REMARK   48  A    between atoms: _132  and  _135
REMARK   49  A    between atoms: _135  and  _136
REMARK   50  A    between atoms: _138  and  _140
REMARK   51  A    between atoms: _140  and  _141
REMARK   52  A    between atoms: _143  and  _145
REMARK   53  A    between atoms: _145  and  _146
REMARK   54  A    between atoms: _145  and  _148
REMARK   55  A    between atoms: _148  and  _149
REMARK   56  A    between atoms: _152  and  _154
REMARK   57  A    between atoms: _154  and  _155
REMARK   58  A    between atoms: _154  and  _157
REMARK   59  A    between atoms: _160  and  _162
REMARK   60  A    between atoms: _162  and  _163
REMARK   61  A    between atoms: _162  and  _165
REMARK   62  A    between atoms: _168  and  _170
REMARK   63  A    between atoms: _170  and  _171
REMARK   64  A    between atoms: _174  and  _176
REMARK   65  A    between atoms: _176  and  _177
REMARK   66  A    between atoms: _176  and  _179
REMARK   67  A    between atoms: _179  and  _180
REMARK   68  A    between atoms: _184  and  ZN_365
REMARK   69  A    between atoms: _185  and  _187
REMARK   70  A    between atoms: _187  and  _188
REMARK   71  A    between atoms: _187  and  _190
REMARK   72  A    between atoms: _190  and  _191
REMARK   73  A    between atoms: _191  and  _192
REMARK   74  A    between atoms: _195  and  _197
REMARK   75  A    between atoms: _197  and  _198
REMARK   76  A    between atoms: _197  and  _200
REMARK   77  A    between atoms: _200  and  _201
REMARK   78  A    between atoms: _204  and  _206
REMARK   79  A    between atoms: _206  and  _207
REMARK   80  A    between atoms: _206  and  _209
REMARK   81  A    between atoms: _209  and  _210
REMARK   82  A    between atoms: _214  and  ZN_365
REMARK   83  A    between atoms: _215  and  _217
REMARK   84  A    between atoms: _217  and  _218
REMARK   85  A    between atoms: _217  and  _220
REMARK   86  A    between atoms: _220  and  _221
REMARK   87  A    between atoms: _226  and  _227
REMARK   88  A    between atoms: _229  and  _231
REMARK   89  A    between atoms: _231  and  _232
REMARK   90  A    between atoms: _231  and  _234
REMARK   91  A    between atoms: _234  and  _235
REMARK   92  A    between atoms: _240  and  _242
REMARK   93  A    between atoms: _242  and  _243
REMARK   94  A    between atoms: _242  and  _245
REMARK   95  A    between atoms: _245  and  _246
REMARK   96  A    between atoms: _246  and  _247
REMARK   97  A    between atoms: _247  and  _248
REMARK   98  A    between atoms: _248  and  ZN_365
REMARK   99  A    between atoms: _250  and  _252
REMARK  100  A    between atoms: _252  and  _253
REMARK  101  A    between atoms: _252  and  _255
REMARK  102  A    between atoms: _255  and  _256
REMARK  103  A    between atoms: _258  and  _260
REMARK  104  A    between atoms: _260  and  _261
REMARK  105  A    between atoms: _260  and  _263
REMARK  106  A    between atoms: _263  and  _264
REMARK  107  A    between atoms: _267  and  _269
REMARK  108  A    between atoms: _269  and  _270
REMARK  109  A    between atoms: _269  and  _272
REMARK  110  A    between atoms: _272  and  _273
REMARK  111  A    between atoms: _276  and  _278
REMARK  112  A    between atoms: _278  and  _279
REMARK  113  A    between atoms: _281  and  _283
REMARK  114  A    between atoms: _283  and  _284
REMARK  115  A    between atoms: _283  and  _286
REMARK  116  A    between atoms: _289  and  _291
REMARK  117  A    between atoms: _291  and  _292
REMARK  118  A    between atoms: _291  and  _294
REMARK  119  A    between atoms: _294  and  _295
REMARK  120  A    between atoms: _300  and  _301
REMARK  121  A    between atoms: _303  and  _305
REMARK  122  A    between atoms: _305  and  _306
REMARK  123  A    between atoms: _305  and  _308
REMARK  124  A    between atoms: _308  and  _309
REMARK  125  A    between atoms: _312  and  _314
REMARK  126  A    between atoms: _314  and  _315
REMARK  127  A    between atoms: _314  and  _317
REMARK  128  A    between atoms: _317  and  _318
REMARK  129  A    between atoms: _318  and  _319
REMARK  130  A    between atoms: _319  and  _320
REMARK  131  A    between atoms: _329  and  _331
REMARK  132  A    between atoms: _331  and  _332
REMARK  133  A    between atoms: _331  and  _334
REMARK  134  A    between atoms: _334  and  _335
REMARK  135  A    between atoms: _338  and  _340
REMARK  136  A    between atoms: _340  and  _341
REMARK  137  A    between atoms: _340  and  _343
REMARK  138  A    between atoms: _346  and  _348
REMARK  139  A    between atoms: _348  and  _349
REMARK  140  A    between atoms: _348  and  _351
REMARK  141  A    between atoms: _351  and  _352
REMARK  142  A    between atoms: _357  and  _359
REMARK  143  A    between atoms: _359  and  _360
REMARK  144  A    between atoms: _359  and  _362
REMARK  145  A    between atoms: _362  and  _363
REMARK                            x       y       z     vdW  Elec       q    Type
REMARK                         _______ _______ _______ _____ _____    ______ ____
ROOT
ATOM      1  C   VAL A   1      58.559  14.841 -10.687  0.00  0.00    +0.238 C 
ATOM      2  N   HIS A   2      58.009  14.018  -9.800  0.00  0.00    -0.298 N 
ATOM      3  H   HIS A   2      57.345  13.284 -10.120  0.00  0.00    +0.150 HD
ATOM      4  O   VAL A   1      59.391  15.742 -10.428  0.00  0.00    -0.274 OA
ENDROOT
BRANCH   1   5
ATOM      5  CA  VAL A   1      58.126  14.510 -12.118  0.00  0.00    +0.145 C 
BRANCH   5   6
ATOM      6  CB  VAL A   1      56.971  15.375 -12.764  0.00  0.00    +0.025 C 
ATOM      7  CG2 VAL A   1      55.849  15.463 -11.835  0.00  0.00    +0.002 C 
ATOM      8  CG1 VAL A   1      56.634  15.211 -14.230  0.00  0.00    +0.002 C 
ENDBRANCH   5   6
BRANCH   5   9
ATOM      9  N   VAL A   1      57.945  13.100 -12.398  0.00  0.00    -0.238 NA
ATOM     10  H   VAL A   1      57.025  12.755 -12.738  0.00  0.00    +0.142 HD
ENDBRANCH   5   9
ENDBRANCH   1   5
BRANCH   2  11
ATOM     11  CA  HIS A   2      58.327  14.136  -8.390  0.00  0.00    +0.143 C 
BRANCH  11  12
ATOM     12  C   HIS A   2      59.573  13.261  -7.979  0.00  0.00    +0.227 C 
ATOM     13  O   HIS A   2      60.004  13.288  -6.821  0.00  0.00    -0.286 OA
ENDBRANCH  11  12
BRANCH  11  14
ATOM     14  CB  HIS A   2      57.193  13.777  -7.361  0.00  0.00    +0.075 C 
BRANCH  14  15
ATOM     15  CG  HIS A   2      55.992  14.619  -7.509  0.00  0.00    +0.082 A 
ATOM     16  CD2 HIS A   2      55.693  15.785  -6.904  0.00  0.00    +0.115 A 
ATOM     17  NE2 HIS A   2      54.454  16.139  -7.366  0.00  0.00    -0.221 NA
ATOM     18  CE1 HIS A   2      54.068  15.270  -8.304  0.00  0.00    +0.199 A 
ATOM     19  ND1 HIS A   2      54.969  14.287  -8.403  0.00  0.00    -0.227 NA
ENDBRANCH  14  15
ENDBRANCH  11  14
ENDBRANCH   2  11
TORSDOF 7
REMARK  Name = ../refined-set-2016/2tmn/2tmn_pocket.pdb
REMARK  145 active torsions:
REMARK  status: ('A' for Active; 'I' for Inactive)
REMARK    1  A    between atoms: _1  and  _3
REMARK    2  A    between atoms: _3  and  _4
REMARK    3  A    between atoms: _3  and  _6
REMARK    4  A    between atoms: _6  and  _7
REMARK    5  A    between atoms: _12  and  _13
REMARK    6  A    between atoms: _15  and  _17
REMARK    7  A    between atoms: _17  and  _18
REMARK    8  A    between atoms: _17  and  _20
REMARK    9  A    between atoms: _20  and  _21
REMARK   10  A    between atoms: _26  and  _28
REMARK   11  A    between atoms: _28  and  _29
REMARK   12  A    between atoms: _28  and  _31
REMARK   13  A    between atoms: _31  and  _32
REMARK   14  A    between atoms: _37  and  _39
REMARK   15  A    between atoms: _39  and  _40
REMARK   16  A    between atoms: _43  and  _45
REMARK   17  A    between atoms: _45  and  _46
REMARK   18  A    between atoms: _45  and  _48
REMARK   19  A    between atoms: _48  and  _49
REMARK   20  A    between atoms: _55  and  _57
REMARK   21  A    between atoms: _57  and  _58
REMARK   22  A    between atoms: _57  and  _60
REMARK   23  A    between atoms: _60  and  _61
REMARK   24  A    between atoms: _71  and  _73
REMARK   25  A    between atoms: _73  and  _74
REMARK   26  A    between atoms: _73  and  _76
REMARK   27  A    between atoms: _76  and  _77
REMARK   28  A    between atoms: _82  and  _84
REMARK   29  A    between atoms: _84  and  _85
REMARK   30  A    between atoms: _84  and  _87
REMARK   31  A    between atoms: _90  and  _92
REMARK   32  A    between atoms: _92  and  _93
REMARK   33  A    between atoms: _92  and  _95
REMARK   34  A    between atoms: _95  and  _96
REMARK   35  A    between atoms: _101  and  _102
REMARK   36  A    between atoms: _104  and  _106
REMARK   37  A    between atoms: _106  and  _107
REMARK   38  A    between atoms: _109  and  _111
REMARK   39  A    between atoms: _111  and  _112
REMARK   40  A    between atoms: _111  and  _114
REMARK   41  A    between atoms: _114  and  _115
REMARK   42  A    between atoms: _121  and  _123
REMARK   43  A    between atoms: _123  and  _124
REMARK   44  A    between atoms: _123  and  _126
REMARK   45  A    between atoms: _126  and  _127
REMARK   46  A    between atoms: _130  and  _132
REMARK   47  A    between atoms: _132  and  _133
REMARK   48  A    between atoms: _132  and  _135
REMARK   49  A    between atoms: _135  and  _136
REMARK   50  A    between atoms: _138  and  _140
REMARK   51  A    between atoms: _140  and  _141
REMARK   52  A    between atoms: _143  and  _145
REMARK   53  A    between atoms: _145  and  _146
REMARK   54  A    between atoms: _145  and  _148
REMARK   55  A    between atoms: _148  and  _149
REMARK   56  A    between atoms: _152  and  _154
REMARK   57  A    between atoms: _154  and  _155
REMARK   58  A    between atoms: _154  and  _157
REMARK   59  A    between atoms: _160  and  _162
REMARK   60  A    between atoms: _162  and  _163
REMARK   61  A    between atoms: _162  and  _165
REMARK   62  A    between atoms: _168  and  _170
REMARK   63  A    between atoms: _170  and  _171
REMARK   64  A    between atoms: _174  and  _176
REMARK   65  A    between atoms: _176  and  _177
REMARK   66  A    between atoms: _176  and  _179
REMARK   67  A    between atoms: _179  and  _180
REMARK   68  A    between atoms: _184  and  ZN_365
REMARK   69  A    between atoms: _185  and  _187
REMARK   70  A    between atoms: _187  and  _188
REMARK   71  A    between atoms: _187  and  _190
REMARK   72  A    between atoms: _190  and  _191
REMARK   73  A    between atoms: _191  and  _192
REMARK   74  A    between atoms: _195  and  _197
REMARK   75  A    between atoms: _197  and  _198
REMARK   76  A    between atoms: _197  and  _200
REMARK   77  A    between atoms: _200  and  _201
REMARK   78  A    between atoms: _204  and  _206
REMARK   79  A    between atoms: _206  and  _207
REMARK   80  A    between atoms: _206  and  _209
REMARK   81  A    between atoms: _209  and  _210
REMARK   82  A    between atoms: _214  and  ZN_365
REMARK   83  A    between atoms: _215  and  _217
REMARK   84  A    between atoms: _217  and  _218
REMARK   85  A    between atoms: _217  and  _220
REMARK   86  A    between atoms: _220  and  _221
REMARK   87  A    between atoms: _226  and  _227
REMARK   88  A    between atoms: _229  and  _231
REMARK   89  A    between atoms: _231  and  _232
REMARK   90  A    between atoms: _231  and  _234
REMARK   91  A    between atoms: _234  and  _235
REMARK   92  A    between atoms: _240  and  _242
REMARK   93  A    between atoms: _242  and  _243
REMARK   94  A    between atoms: _242  and  _245
REMARK   95  A    between atoms: _245  and  _246
REMARK   96  A    between atoms: _246  and  _247
REMARK   97  A    between atoms: _247  and  _248
REMARK   98  A    between atoms: _248  and  ZN_365
REMARK   99  A    between atoms: _250  and  _252
REMARK  100  A    between atoms: _252  and  _253
REMARK  101  A    between atoms: _252  and  _255
REMARK  102  A    between atoms: _255  and  _256
REMARK  103  A    between atoms: _258  and  _260
REMARK  104  A    between atoms: _260  and  _261
REMARK  105  A    between atoms: _260  and  _263
REMARK  106  A    between atoms: _263  and  _264
REMARK  107  A    between atoms: _267  and  _269
REMARK  108  A    between atoms: _269  and  _270
REMARK  109  A    between atoms: _269  and  _272
REMARK  110  A    between atoms: _272  and  _273
REMARK  111  A    between atoms: _276  and  _278
REMARK  112  A    between atoms: _278  and  _279
REMARK  113  A    between atoms: _281  and  _283
REMARK  114  A    between atoms: _283  and  _284
REMARK  115  A    between atoms: _283  and  _286
REMARK  116  A    between atoms: _289  and  _291
REMARK  117  A    between atoms: _291  and  _292
REMARK  118  A    between atoms: _291  and  _294
REMARK  119  A    between atoms: _294  and  _295
REMARK  120  A    between atoms: _300  and  _301
REMARK  121  A    between atoms: _303  and  _305
REMARK  122  A    between atoms: _305  and  _306
REMARK  123  A    between atoms: _305  and  _308
REMARK  124  A    between atoms: _308  and  _309
REMARK  125  A    between atoms: _312  and  _314
REMARK  126  A    between atoms: _314  and  _315
REMARK  127  A    between atoms: _314  and  _317
REMARK  128  A    between atoms: _317  and  _318
REMARK  129  A    between atoms: _318  and  _319
REMARK  130  A    between atoms: _319  and  _320
REMARK  131  A    between atoms: _329  and  _331
REMARK  132  A    between atoms: _331  and  _332
REMARK  133  A    between atoms: _331  and  _334
REMARK  134  A    between atoms: _334  and  _335
REMARK  135  A    between atoms: _338  and  _340
REMARK  136  A    between atoms: _340  and  _341
REMARK  137  A    between atoms: _340  and  _343
REMARK  138  A    between atoms: _346  and  _348
REMARK  139  A    between atoms: _348  and  _349
REMARK  140  A    between atoms: _348  and  _351
REMARK  141  A    between atoms: _351  and  _352
REMARK  142  A    between atoms: _357  and  _359
REMARK  143  A    between atoms: _359  and  _360
REMARK  144  A    between atoms: _359  and  _362
REMARK  145  A    between atoms: _362  and  _363
REMARK                            x       y       z     vdW  Elec       q    Type
REMARK                         _______ _______ _______ _____ _____    ______ ____
ROOT
ATOM      1  CA  SER A   1      63.205  16.567  -9.496  0.00  0.00    +0.163 C 
ENDROOT
BRANCH   1   2
ATOM      2  N   SER A   1      62.979  15.259 -10.011  0.00  0.00    -0.237 NA
ATOM      3  H   SER A   1      62.063  14.793  -9.851  0.00  0.00    +0.142 HD
ENDBRANCH   1   2
BRANCH   1   4
ATOM      4  C   SER A   1      64.342  16.454  -8.512  0.00  0.00    +0.227 C 
ATOM      5  O   SER A   1      65.048  17.421  -8.198  0.00  0.00    -0.287 OA
ENDBRANCH   1   4
BRANCH   1   6
ATOM      6  CB  SER A   1      61.960  17.030  -8.766  0.00  0.00    +0.162 C 
BRANCH   6   7
ATOM      7  OG  SER A   1      61.594  16.143  -7.704  0.00  0.00    -0.380 OA
ATOM      8  H   SER A   1      60.779  16.484  -7.257  0.00  0.00    +0.211 HD
ENDBRANCH   6   7
ENDBRANCH   1   6
TORSDOF 4
REMARK  Name = ../refined-set-2016/2tmn/2tmn_pocket.pdb
REMARK  145 active torsions:
REMARK  status: ('A' for Active; 'I' for Inactive)
REMARK    1  A    between atoms: _1  and  _3
REMARK    2  A    between atoms: _3  and  _4
REMARK    3  A    between atoms: _3  and  _6
REMARK    4  A    between atoms: _6  and  _7
REMARK    5  A    between atoms: _12  and  _13
REMARK    6  A    between atoms: _15  and  _17
REMARK    7  A    between atoms: _17  and  _18
REMARK    8  A    between atoms: _17  and  _20
REMARK    9  A    between atoms: _20  and  _21
REMARK   10  A    between atoms: _26  and  _28
REMARK   11  A    between atoms: _28  and  _29
REMARK   12  A    between atoms: _28  and  _31
REMARK   13  A    between atoms: _31  and  _32
REMARK   14  A    between atoms: _37  and  _39
REMARK   15  A    between atoms: _39  and  _40
REMARK   16  A    between atoms: _43  and  _45
REMARK   17  A    between atoms: _45  and  _46
REMARK   18  A    between atoms: _45  and  _48
REMARK   19  A    between atoms: _48  and  _49
REMARK   20  A    between atoms: _55  and  _57
REMARK   21  A    between atoms: _57  and  _58
REMARK   22  A    between atoms: _57  and  _60
REMARK   23  A    between atoms: _60  and  _61
REMARK   24  A    between atoms: _71  and  _73
REMARK   25  A    between atoms: _73  and  _74
REMARK   26  A    between atoms: _73  and  _76
REMARK   27  A    between atoms: _76  and  _77
REMARK   28  A    between atoms: _82  and  _84
REMARK   29  A    between atoms: _84  and  _85
REMARK   30  A    between atoms: _84  and  _87
REMARK   31  A    between atoms: _90  and  _92
REMARK   32  A    between atoms: _92  and  _93
REMARK   33  A    between atoms: _92  and  _95
REMARK   34  A    between atoms: _95  and  _96
REMARK   35  A    between atoms: _101  and  _102
REMARK   36  A    between atoms: _104  and  _106
REMARK   37  A    between atoms: _106  and  _107
REMARK   38  A    between atoms: _109  and  _111
REMARK   39  A    between atoms: _111  and  _112
REMARK   40  A    between atoms: _111  and  _114
REMARK   41  A    between atoms: _114  and  _115
REMARK   42  A    between atoms: _121  and  _123
REMARK   43  A    between atoms: _123  and  _124
REMARK   44  A    between atoms: _123  and  _126
REMARK   45  A    between atoms: _126  and  _127
REMARK   46  A    between atoms: _130  and  _132
REMARK   47  A    between atoms: _132  and  _133
REMARK   48  A    between atoms: _132  and  _135
REMARK   49  A    between atoms: _135  and  _136
REMARK   50  A    between atoms: _138  and  _140
REMARK   51  A    between atoms: _140  and  _141
REMARK   52  A    between atoms: _143  and  _145
REMARK   53  A    between atoms: _145  and  _146
REMARK   54  A    between atoms: _145  and  _148
REMARK   55  A    between atoms: _148  and  _149
REMARK   56  A    between atoms: _152  and  _154
REMARK   57  A    between atoms: _154  and  _155
REMARK   58  A    between atoms: _154  and  _157
REMARK   59  A    between atoms: _160  and  _162
REMARK   60  A    between atoms: _162  and  _163
REMARK   61  A    between atoms: _162  and  _165
REMARK   62  A    between atoms: _168  and  _170
REMARK   63  A    between atoms: _170  and  _171
REMARK   64  A    between atoms: _174  and  _176
REMARK   65  A    between atoms: _176  and  _177
REMARK   66  A    between atoms: _176  and  _179
REMARK   67  A    between atoms: _179  and  _180
REMARK   68  A    between atoms: _184  and  ZN_365
REMARK   69  A    between atoms: _185  and  _187
REMARK   70  A    between atoms: _187  and  _188
REMARK   71  A    between atoms: _187  and  _190
REMARK   72  A    between atoms: _190  and  _191
REMARK   73  A    between atoms: _191  and  _192
REMARK   74  A    between atoms: _195  and  _197
REMARK   75  A    between atoms: _197  and  _198
REMARK   76  A    between atoms: _197  and  _200
REMARK   77  A    between atoms: _200  and  _201
REMARK   78  A    between atoms: _204  and  _206
REMARK   79  A    between atoms: _206  and  _207
REMARK   80  A    between atoms: _206  and  _209
REMARK   81  A    between atoms: _209  and  _210
REMARK   82  A    between atoms: _214  and  ZN_365
REMARK   83  A    between atoms: _215  and  _217
REMARK   84  A    between atoms: _217  and  _218
REMARK   85  A    between atoms: _217  and  _220
REMARK   86  A    between atoms: _220  and  _221
REMARK   87  A    between atoms: _226  and  _227
REMARK   88  A    between atoms: _229  and  _231
REMARK   89  A    between atoms: _231  and  _232
REMARK   90  A    between atoms: _231  and  _234
REMARK   91  A    between atoms: _234  and  _235
REMARK   92  A    between atoms: _240  and  _242
REMARK   93  A    between atoms: _242  and  _243
REMARK   94  A    between atoms: _242  and  _245
REMARK   95  A    between atoms: _245  and  _246
REMARK   96  A    between atoms: _246  and  _247
REMARK   97  A    between atoms: _247  and  _248
REMARK   98  A    between atoms: _248  and  ZN_365
REMARK   99  A    between atoms: _250  and  _252
REMARK  100  A    between atoms: _252  and  _253
REMARK  101  A    between atoms: _252  and  _255
REMARK  102  A    between atoms: _255  and  _256
REMARK  103  A    between atoms: _258  and  _260
REMARK  104  A    between atoms: _260  and  _261
REMARK  105  A    between atoms: _260  and  _263
REMARK  106  A    between atoms: _263  and  _264
REMARK  107  A    between atoms: _267  and  _269
REMARK  108  A    between atoms: _269  and  _270
REMARK  109  A    between atoms: _269  and  _272
REMARK  110  A    between atoms: _272  and  _273
REMARK  111  A    between atoms: _276  and  _278
REMARK  112  A    between atoms: _278  and  _279
REMARK  113  A    between atoms: _281  and  _283
REMARK  114  A    between atoms: _283  and  _284
REMARK  115  A    between atoms: _283  and  _286
REMARK  116  A    between atoms: _289  and  _291
REMARK  117  A    between atoms: _291  and  _292
REMARK  118  A    between atoms: _291  and  _294
REMARK  119  A    between atoms: _294  and  _295
REMARK  120  A    between atoms: _300  and  _301
REMARK  121  A    between atoms: _303  and  _305
REMARK  122  A    between atoms: _305  and  _306
REMARK  123  A    between atoms: _305  and  _308
REMARK  124  A    between atoms: _308  and  _309
REMARK  125  A    between atoms: _312  and  _314
REMARK  126  A    between atoms: _314  and  _315
REMARK  127  A    between atoms: _314  and  _317
REMARK  128  A    between atoms: _317  and  _318
REMARK  129  A    between atoms: _318  and  _319
REMARK  130  A    between atoms: _319  and  _320
REMARK  131  A    between atoms: _329  and  _331
REMARK  132  A    between atoms: _331  and  _332
REMARK  133  A    between atoms: _331  and  _334
REMARK  134  A    between atoms: _334  and  _335
REMARK  135  A    between atoms: _338  and  _340
REMARK  136  A    between atoms: _340  and  _341
REMARK  137  A    between atoms: _340  and  _343
REMARK  138  A    between atoms: _346  and  _348
REMARK  139  A    between atoms: _348  and  _349
REMARK  140  A    between atoms: _348  and  _351
REMARK  141  A    between atoms: _351  and  _352
REMARK  142  A    between atoms: _357  and  _359
REMARK  143  A    between atoms: _359  and  _360
REMARK  144  A    between atoms: _359  and  _362
REMARK  145  A    between atoms: _362  and  _363
REMARK                            x       y       z     vdW  Elec       q    Type
REMARK                         _______ _______ _______ _____ _____    ______ ____
ROOT
ATOM      1  O   HOH     1      49.852  21.182  -8.006  0.00  0.00    +0.000 OA
ENDROOT
TORSDOF 0
REMARK  Name = ../refined-set-2016/2tmn/2tmn_pocket.pdb
REMARK  145 active torsions:
REMARK  status: ('A' for Active; 'I' for Inactive)
REMARK    1  A    between atoms: _1  and  _3
REMARK    2  A    between atoms: _3  and  _4
REMARK    3  A    between atoms: _3  and  _6
REMARK    4  A    between atoms: _6  and  _7
REMARK    5  A    between atoms: _12  and  _13
REMARK    6  A    between atoms: _15  and  _17
REMARK    7  A    between atoms: _17  and  _18
REMARK    8  A    between atoms: _17  and  _20
REMARK    9  A    between atoms: _20  and  _21
REMARK   10  A    between atoms: _26  and  _28
REMARK   11  A    between atoms: _28  and  _29
REMARK   12  A    between atoms: _28  and  _31
REMARK   13  A    between atoms: _31  and  _32
REMARK   14  A    between atoms: _37  and  _39
REMARK   15  A    between atoms: _39  and  _40
REMARK   16  A    between atoms: _43  and  _45
REMARK   17  A    between atoms: _45  and  _46
REMARK   18  A    between atoms: _45  and  _48
REMARK   19  A    between atoms: _48  and  _49
REMARK   20  A    between atoms: _55  and  _57
REMARK   21  A    between atoms: _57  and  _58
REMARK   22  A    between atoms: _57  and  _60
REMARK   23  A    between atoms: _60  and  _61
REMARK   24  A    between atoms: _71  and  _73
REMARK   25  A    between atoms: _73  and  _74
REMARK   26  A    between atoms: _73  and  _76
REMARK   27  A    between atoms: _76  and  _77
REMARK   28  A    between atoms: _82  and  _84
REMARK   29  A    between atoms: _84  and  _85
REMARK   30  A    between atoms: _84  and  _87
REMARK   31  A    between atoms: _90  and  _92
REMARK   32  A    between atoms: _92  and  _93
REMARK   33  A    between atoms: _92  and  _95
REMARK   34  A    between atoms: _95  and  _96
REMARK   35  A    between atoms: _101  and  _102
REMARK   36  A    between atoms: _104  and  _106
REMARK   37  A    between atoms: _106  and  _107
REMARK   38  A    between atoms: _109  and  _111
REMARK   39  A    between atoms: _111  and  _112
REMARK   40  A    between atoms: _111  and  _114
REMARK   41  A    between atoms: _114  and  _115
REMARK   42  A    between atoms: _121  and  _123
REMARK   43  A    between atoms: _123  and  _124
REMARK   44  A    between atoms: _123  and  _126
REMARK   45  A    between atoms: _126  and  _127
REMARK   46  A    between atoms: _130  and  _132
REMARK   47  A    between atoms: _132  and  _133
REMARK   48  A    between atoms: _132  and  _135
REMARK   49  A    between atoms: _135  and  _136
REMARK   50  A    between atoms: _138  and  _140
REMARK   51  A    between atoms: _140  and  _141
REMARK   52  A    between atoms: _143  and  _145
REMARK   53  A    between atoms: _145  and  _146
REMARK   54  A    between atoms: _145  and  _148
REMARK   55  A    between atoms: _148  and  _149
REMARK   56  A    between atoms: _152  and  _154
REMARK   57  A    between atoms: _154  and  _155
REMARK   58  A    between atoms: _154  and  _157
REMARK   59  A    between atoms: _160  and  _162
REMARK   60  A    between atoms: _162  and  _163
REMARK   61  A    between atoms: _162  and  _165
REMARK   62  A    between atoms: _168  and  _170
REMARK   63  A    between atoms: _170  and  _171
REMARK   64  A    between atoms: _174  and  _176
REMARK   65  A    between atoms: _176  and  _177
REMARK   66  A    between atoms: _176  and  _179
REMARK   67  A    between atoms: _179  and  _180
REMARK   68  A    between atoms: _184  and  ZN_365
REMARK   69  A    between atoms: _185  and  _187
REMARK   70  A    between atoms: _187  and  _188
REMARK   71  A    between atoms: _187  and  _190
REMARK   72  A    between atoms: _190  and  _191
REMARK   73  A    between atoms: _191  and  _192
REMARK   74  A    between atoms: _195  and  _197
REMARK   75  A    between atoms: _197  and  _198
REMARK   76  A    between atoms: _197  and  _200
REMARK   77  A    between atoms: _200  and  _201
REMARK   78  A    between atoms: _204  and  _206
REMARK   79  A    between atoms: _206  and  _207
REMARK   80  A    between atoms: _206  and  _209
REMARK   81  A    between atoms: _209  and  _210
REMARK   82  A    between atoms: _214  and  ZN_365
REMARK   83  A    between atoms: _215  and  _217
REMARK   84  A    between atoms: _217  and  _218
REMARK   85  A    between atoms: _217  and  _220
REMARK   86  A    between atoms: _220  and  _221
REMARK   87  A    between atoms: _226  and  _227
REMARK   88  A    between atoms: _229  and  _231
REMARK   89  A    between atoms: _231  and  _232
REMARK   90  A    between atoms: _231  and  _234
REMARK   91  A    between atoms: _234  and  _235
REMARK   92  A    between atoms: _240  and  _242
REMARK   93  A    between atoms: _242  and  _243
REMARK   94  A    between atoms: _242  and  _245
REMARK   95  A    between atoms: _245  and  _246
REMARK   96  A    between atoms: _246  and  _247
REMARK   97  A    between atoms: _247  and  _248
REMARK   98  A    between atoms: _248  and  ZN_365
REMARK   99  A    between atoms: _250  and  _252
REMARK  100  A    between atoms: _252  and  _253
REMARK  101  A    between atoms: _252  and  _255
REMARK  102  A    between atoms: _255  and  _256
REMARK  103  A    between atoms: _258  and  _260
REMARK  104  A    between atoms: _260  and  _261
REMARK  105  A    between atoms: _260  and  _263
REMARK  106  A    between atoms: _263  and  _264
REMARK  107  A    between atoms: _267  and  _269
REMARK  108  A    between atoms: _269  and  _270
REMARK  109  A    between atoms: _269  and  _272
REMARK  110  A    between atoms: _272  and  _273
REMARK  111  A    between atoms: _276  and  _278
REMARK  112  A    between atoms: _278  and  _279
REMARK  113  A    between atoms: _281  and  _283
REMARK  114  A    between atoms: _283  and  _284
REMARK  115  A    between atoms: _283  and  _286
REMARK  116  A    between atoms: _289  and  _291
REMARK  117  A    between atoms: _291  and  _292
REMARK  118  A    between atoms: _291  and  _294
REMARK  119  A    between atoms: _294  and  _295
REMARK  120  A    between atoms: _300  and  _301
REMARK  121  A    between atoms: _303  and  _305
REMARK  122  A    between atoms: _305  and  _306
REMARK  123  A    between atoms: _305  and  _308
REMARK  124  A    between atoms: _308  and  _309
REMARK  125  A    between atoms: _312  and  _314
REMARK  126  A    between atoms: _314  and  _315
REMARK  127  A    between atoms: _314  and  _317
REMARK  128  A    between atoms: _317  and  _318
REMARK  129  A    between atoms: _318  and  _319
REMARK  130  A    between atoms: _319  and  _320
REMARK  131  A    between atoms: _329  and  _331
REMARK  132  A    between atoms: _331  and  _332
REMARK  133  A    between atoms: _331  and  _334
REMARK  134  A    between atoms: _334  and  _335
REMARK  135  A    between atoms: _338  and  _340
REMARK  136  A    between atoms: _340  and  _341
REMARK  137  A    between atoms: _340  and  _343
REMARK  138  A    between atoms: _346  and  _348
REMARK  139  A    between atoms: _348  and  _349
REMARK  140  A    between atoms: _348  and  _351
REMARK  141  A    between atoms: _351  and  _352
REMARK  142  A    between atoms: _357  and  _359
REMARK  143  A    between atoms: _359  and  _360
REMARK  144  A    between atoms: _359  and  _362
REMARK  145  A    between atoms: _362  and  _363
REMARK                            x       y       z     vdW  Elec       q    Type
REMARK                         _______ _______ _______ _____ _____    ______ ____
ROOT
ATOM      1  O   HOH     1      52.296  13.534 -11.164  0.00  0.00    +0.000 OA
ENDROOT
TORSDOF 0
REMARK  Name = ../refined-set-2016/2tmn/2tmn_pocket.pdb
REMARK  145 active torsions:
REMARK  status: ('A' for Active; 'I' for Inactive)
REMARK    1  A    between atoms: _1  and  _3
REMARK    2  A    between atoms: _3  and  _4
REMARK    3  A    between atoms: _3  and  _6
REMARK    4  A    between atoms: _6  and  _7
REMARK    5  A    between atoms: _12  and  _13
REMARK    6  A    between atoms: _15  and  _17
REMARK    7  A    between atoms: _17  and  _18
REMARK    8  A    between atoms: _17  and  _20
REMARK    9  A    between atoms: _20  and  _21
REMARK   10  A    between atoms: _26  and  _28
REMARK   11  A    between atoms: _28  and  _29
REMARK   12  A    between atoms: _28  and  _31
REMARK   13  A    between atoms: _31  and  _32
REMARK   14  A    between atoms: _37  and  _39
REMARK   15  A    between atoms: _39  and  _40
REMARK   16  A    between atoms: _43  and  _45
REMARK   17  A    between atoms: _45  and  _46
REMARK   18  A    between atoms: _45  and  _48
REMARK   19  A    between atoms: _48  and  _49
REMARK   20  A    between atoms: _55  and  _57
REMARK   21  A    between atoms: _57  and  _58
REMARK   22  A    between atoms: _57  and  _60
REMARK   23  A    between atoms: _60  and  _61
REMARK   24  A    between atoms: _71  and  _73
REMARK   25  A    between atoms: _73  and  _74
REMARK   26  A    between atoms: _73  and  _76
REMARK   27  A    between atoms: _76  and  _77
REMARK   28  A    between atoms: _82  and  _84
REMARK   29  A    between atoms: _84  and  _85
REMARK   30  A    between atoms: _84  and  _87
REMARK   31  A    between atoms: _90  and  _92
REMARK   32  A    between atoms: _92  and  _93
REMARK   33  A    between atoms: _92  and  _95
REMARK   34  A    between atoms: _95  and  _96
REMARK   35  A    between atoms: _101  and  _102
REMARK   36  A    between atoms: _104  and  _106
REMARK   37  A    between atoms: _106  and  _107
REMARK   38  A    between atoms: _109  and  _111
REMARK   39  A    between atoms: _111  and  _112
REMARK   40  A    between atoms: _111  and  _114
REMARK   41  A    between atoms: _114  and  _115
REMARK   42  A    between atoms: _121  and  _123
REMARK   43  A    between atoms: _123  and  _124
REMARK   44  A    between atoms: _123  and  _126
REMARK   45  A    between atoms: _126  and  _127
REMARK   46  A    between atoms: _130  and  _132
REMARK   47  A    between atoms: _132  and  _133
REMARK   48  A    between atoms: _132  and  _135
REMARK   49  A    between atoms: _135  and  _136
REMARK   50  A    between atoms: _138  and  _140
REMARK   51  A    between atoms: _140  and  _141
REMARK   52  A    between atoms: _143  and  _145
REMARK   53  A    between atoms: _145  and  _146
REMARK   54  A    between atoms: _145  and  _148
REMARK   55  A    between atoms: _148  and  _149
REMARK   56  A    between atoms: _152  and  _154
REMARK   57  A    between atoms: _154  and  _155
REMARK   58  A    between atoms: _154  and  _157
REMARK   59  A    between atoms: _160  and  _162
REMARK   60  A    between atoms: _162  and  _163
REMARK   61  A    between atoms: _162  and  _165
REMARK   62  A    between atoms: _168  and  _170
REMARK   63  A    between atoms: _170  and  _171
REMARK   64  A    between atoms: _174  and  _176
REMARK   65  A    between atoms: _176  and  _177
REMARK   66  A    between atoms: _176  and  _179
REMARK   67  A    between atoms: _179  and  _180
REMARK   68  A    between atoms: _184  and  ZN_365
REMARK   69  A    between atoms: _185  and  _187
REMARK   70  A    between atoms: _187  and  _188
REMARK   71  A    between atoms: _187  and  _190
REMARK   72  A    between atoms: _190  and  _191
REMARK   73  A    between atoms: _191  and  _192
REMARK   74  A    between atoms: _195  and  _197
REMARK   75  A    between atoms: _197  and  _198
REMARK   76  A    between atoms: _197  and  _200
REMARK   77  A    between atoms: _200  and  _201
REMARK   78  A    between atoms: _204  and  _206
REMARK   79  A    between atoms: _206  and  _207
REMARK   80  A    between atoms: _206  and  _209
REMARK   81  A    between atoms: _209  and  _210
REMARK   82  A    between atoms: _214  and  ZN_365
REMARK   83  A    between atoms: _215  and  _217
REMARK   84  A    between atoms: _217  and  _218
REMARK   85  A    between atoms: _217  and  _220
REMARK   86  A    between atoms: _220  and  _221
REMARK   87  A    between atoms: _226  and  _227
REMARK   88  A    between atoms: _229  and  _231
REMARK   89  A    between atoms: _231  and  _232
REMARK   90  A    between atoms: _231  and  _234
REMARK   91  A    between atoms: _234  and  _235
REMARK   92  A    between atoms: _240  and  _242
REMARK   93  A    between atoms: _242  and  _243
REMARK   94  A    between atoms: _242  and  _245
REMARK   95  A    between atoms: _245  and  _246
REMARK   96  A    between atoms: _246  and  _247
REMARK   97  A    between atoms: _247  and  _248
REMARK   98  A    between atoms: _248  and  ZN_365
REMARK   99  A    between atoms: _250  and  _252
REMARK  100  A    between atoms: _252  and  _253
REMARK  101  A    between atoms: _252  and  _255
REMARK  102  A    between atoms: _255  and  _256
REMARK  103  A    between atoms: _258  and  _260
REMARK  104  A    between atoms: _260  and  _261
REMARK  105  A    between atoms: _260  and  _263
REMARK  106  A    between atoms: _263  and  _264
REMARK  107  A    between atoms: _267  and  _269
REMARK  108  A    between atoms: _269  and  _270
REMARK  109  A    between atoms: _269  and  _272
REMARK  110  A    between atoms: _272  and  _273
REMARK  111  A    between atoms: _276  and  _278
REMARK  112  A    between atoms: _278  and  _279
REMARK  113  A    between atoms: _281  and  _283
REMARK  114  A    between atoms: _283  and  _284
REMARK  115  A    between atoms: _283  and  _286
REMARK  116  A    between atoms: _289  and  _291
REMARK  117  A    between atoms: _291  and  _292
REMARK  118  A    between atoms: _291  and  _294
REMARK  119  A    between atoms: _294  and  _295
REMARK  120  A    between atoms: _300  and  _301
REMARK  121  A    between atoms: _303  and  _305
REMARK  122  A    between atoms: _305  and  _306
REMARK  123  A    between atoms: _305  and  _308
REMARK  124  A    between atoms: _308  and  _309
REMARK  125  A    between atoms: _312  and  _314
REMARK  126  A    between atoms: _314  and  _315
REMARK  127  A    between atoms: _314  and  _317
REMARK  128  A    between atoms: _317  and  _318
REMARK  129  A    between atoms: _318  and  _319
REMARK  130  A    between atoms: _319  and  _320
REMARK  131  A    between atoms: _329  and  _331
REMARK  132  A    between atoms: _331  and  _332
REMARK  133  A    between atoms: _331  and  _334
REMARK  134  A    between atoms: _334  and  _335
REMARK  135  A    between atoms: _338  and  _340
REMARK  136  A    between atoms: _340  and  _341
REMARK  137  A    between atoms: _340  and  _343
REMARK  138  A    between atoms: _346  and  _348
REMARK  139  A    between atoms: _348  and  _349
REMARK  140  A    between atoms: _348  and  _351
REMARK  141  A    between atoms: _351  and  _352
REMARK  142  A    between atoms: _357  and  _359
REMARK  143  A    between atoms: _359  and  _360
REMARK  144  A    between atoms: _359  and  _362
REMARK  145  A    between atoms: _362  and  _363
REMARK                            x       y       z     vdW  Elec       q    Type
REMARK                         _______ _______ _______ _____ _____    ______ ____
ROOT
ATOM      1  O   HOH     1      59.622  17.527  -6.559  0.00  0.00    +0.000 OA
ENDROOT
TORSDOF 0
REMARK  Name = ../refined-set-2016/2tmn/2tmn_pocket.pdb
REMARK  145 active torsions:
REMARK  status: ('A' for Active; 'I' for Inactive)
REMARK    1  A    between atoms: _1  and  _3
REMARK    2  A    between atoms: _3  and  _4
REMARK    3  A    between atoms: _3  and  _6
REMARK    4  A    between atoms: _6  and  _7
REMARK    5  A    between atoms: _12  and  _13
REMARK    6  A    between atoms: _15  and  _17
REMARK    7  A    between atoms: _17  and  _18
REMARK    8  A    between atoms: _17  and  _20
REMARK    9  A    between atoms: _20  and  _21
REMARK   10  A    between atoms: _26  and  _28
REMARK   11  A    between atoms: _28  and  _29
REMARK   12  A    between atoms: _28  and  _31
REMARK   13  A    between atoms: _31  and  _32
REMARK   14  A    between atoms: _37  and  _39
REMARK   15  A    between atoms: _39  and  _40
REMARK   16  A    between atoms: _43  and  _45
REMARK   17  A    between atoms: _45  and  _46
REMARK   18  A    between atoms: _45  and  _48
REMARK   19  A    between atoms: _48  and  _49
REMARK   20  A    between atoms: _55  and  _57
REMARK   21  A    between atoms: _57  and  _58
REMARK   22  A    between atoms: _57  and  _60
REMARK   23  A    between atoms: _60  and  _61
REMARK   24  A    between atoms: _71  and  _73
REMARK   25  A    between atoms: _73  and  _74
REMARK   26  A    between atoms: _73  and  _76
REMARK   27  A    between atoms: _76  and  _77
REMARK   28  A    between atoms: _82  and  _84
REMARK   29  A    between atoms: _84  and  _85
REMARK   30  A    between atoms: _84  and  _87
REMARK   31  A    between atoms: _90  and  _92
REMARK   32  A    between atoms: _92  and  _93
REMARK   33  A    between atoms: _92  and  _95
REMARK   34  A    between atoms: _95  and  _96
REMARK   35  A    between atoms: _101  and  _102
REMARK   36  A    between atoms: _104  and  _106
REMARK   37  A    between atoms: _106  and  _107
REMARK   38  A    between atoms: _109  and  _111
REMARK   39  A    between atoms: _111  and  _112
REMARK   40  A    between atoms: _111  and  _114
REMARK   41  A    between atoms: _114  and  _115
REMARK   42  A    between atoms: _121  and  _123
REMARK   43  A    between atoms: _123  and  _124
REMARK   44  A    between atoms: _123  and  _126
REMARK   45  A    between atoms: _126  and  _127
REMARK   46  A    between atoms: _130  and  _132
REMARK   47  A    between atoms: _132  and  _133
REMARK   48  A    between atoms: _132  and  _135
REMARK   49  A    between atoms: _135  and  _136
REMARK   50  A    between atoms: _138  and  _140
REMARK   51  A    between atoms: _140  and  _141
REMARK   52  A    between atoms: _143  and  _145
REMARK   53  A    between atoms: _145  and  _146
REMARK   54  A    between atoms: _145  and  _148
REMARK   55  A    between atoms: _148  and  _149
REMARK   56  A    between atoms: _152  and  _154
REMARK   57  A    between atoms: _154  and  _155
REMARK   58  A    between atoms: _154  and  _157
REMARK   59  A    between atoms: _160  and  _162
REMARK   60  A    between atoms: _162  and  _163
REMARK   61  A    between atoms: _162  and  _165
REMARK   62  A    between atoms: _168  and  _170
REMARK   63  A    between atoms: _170  and  _171
REMARK   64  A    between atoms: _174  and  _176
REMARK   65  A    between atoms: _176  and  _177
REMARK   66  A    between atoms: _176  and  _179
REMARK   67  A    between atoms: _179  and  _180
REMARK   68  A    between atoms: _184  and  ZN_365
REMARK   69  A    between atoms: _185  and  _187
REMARK   70  A    between atoms: _187  and  _188
REMARK   71  A    between atoms: _187  and  _190
REMARK   72  A    between atoms: _190  and  _191
REMARK   73  A    between atoms: _191  and  _192
REMARK   74  A    between atoms: _195  and  _197
REMARK   75  A    between atoms: _197  and  _198
REMARK   76  A    between atoms: _197  and  _200
REMARK   77  A    between atoms: _200  and  _201
REMARK   78  A    between atoms: _204  and  _206
REMARK   79  A    between atoms: _206  and  _207
REMARK   80  A    between atoms: _206  and  _209
REMARK   81  A    between atoms: _209  and  _210
REMARK   82  A    between atoms: _214  and  ZN_365
REMARK   83  A    between atoms: _215  and  _217
REMARK   84  A    between atoms: _217  and  _218
REMARK   85  A    between atoms: _217  and  _220
REMARK   86  A    between atoms: _220  and  _221
REMARK   87  A    between atoms: _226  and  _227
REMARK   88  A    between atoms: _229  and  _231
REMARK   89  A    between atoms: _231  and  _232
REMARK   90  A    between atoms: _231  and  _234
REMARK   91  A    between atoms: _234  and  _235
REMARK   92  A    between atoms: _240  and  _242
REMARK   93  A    between atoms: _242  and  _243
REMARK   94  A    between atoms: _242  and  _245
REMARK   95  A    between atoms: _245  and  _246
REMARK   96  A    between atoms: _246  and  _247
REMARK   97  A    between atoms: _247  and  _248
REMARK   98  A    between atoms: _248  and  ZN_365
REMARK   99  A    between atoms: _250  and  _252
REMARK  100  A    between atoms: _252  and  _253
REMARK  101  A    between atoms: _252  and  _255
REMARK  102  A    between atoms: _255  and  _256
REMARK  103  A    between atoms: _258  and  _260
REMARK  104  A    between atoms: _260  and  _261
REMARK  105  A    between atoms: _260  and  _263
REMARK  106  A    between atoms: _263  and  _264
REMARK  107  A    between atoms: _267  and  _269
REMARK  108  A    between atoms: _269  and  _270
REMARK  109  A    between atoms: _269  and  _272
REMARK  110  A    between atoms: _272  and  _273
REMARK  111  A    between atoms: _276  and  _278
REMARK  112  A    between atoms: _278  and  _279
REMARK  113  A    between atoms: _281  and  _283
REMARK  114  A    between atoms: _283  and  _284
REMARK  115  A    between atoms: _283  and  _286
REMARK  116  A    between atoms: _289  and  _291
REMARK  117  A    between atoms: _291  and  _292
REMARK  118  A    between atoms: _291  and  _294
REMARK  119  A    between atoms: _294  and  _295
REMARK  120  A    between atoms: _300  and  _301
REMARK  121  A    between atoms: _303  and  _305
REMARK  122  A    between atoms: _305  and  _306
REMARK  123  A    between atoms: _305  and  _308
REMARK  124  A    between atoms: _308  and  _309
REMARK  125  A    between atoms: _312  and  _314
REMARK  126  A    between atoms: _314  and  _315
REMARK  127  A    between atoms: _314  and  _317
REMARK  128  A    between atoms: _317  and  _318
REMARK  129  A    between atoms: _318  and  _319
REMARK  130  A    between atoms: _319  and  _320
REMARK  131  A    between atoms: _329  and  _331
REMARK  132  A    between atoms: _331  and  _332
REMARK  133  A    between atoms: _331  and  _334
REMARK  134  A    between atoms: _334  and  _335
REMARK  135  A    between atoms: _338  and  _340
REMARK  136  A    between atoms: _340  and  _341
REMARK  137  A    between atoms: _340  and  _343
REMARK  138  A    between atoms: _346  and  _348
REMARK  139  A    between atoms: _348  and  _349
REMARK  140  A    between atoms: _348  and  _351
REMARK  141  A    between atoms: _351  and  _352
REMARK  142  A    between atoms: _357  and  _359
REMARK  143  A    between atoms: _359  and  _360
REMARK  144  A    between atoms: _359  and  _362
REMARK  145  A    between atoms: _362  and  _363
REMARK                            x       y       z     vdW  Elec       q    Type
REMARK                         _______ _______ _______ _____ _____    ______ ____
ROOT
ATOM      1  O   HOH     1      51.471  14.116  -5.853  0.00  0.00    +0.000 OA
ENDROOT
TORSDOF 0
REMARK  Name = ../refined-set-2016/2tmn/2tmn_pocket.pdb
REMARK  145 active torsions:
REMARK  status: ('A' for Active; 'I' for Inactive)
REMARK    1  A    between atoms: _1  and  _3
REMARK    2  A    between atoms: _3  and  _4
REMARK    3  A    between atoms: _3  and  _6
REMARK    4  A    between atoms: _6  and  _7
REMARK    5  A    between atoms: _12  and  _13
REMARK    6  A    between atoms: _15  and  _17
REMARK    7  A    between atoms: _17  and  _18
REMARK    8  A    between atoms: _17  and  _20
REMARK    9  A    between atoms: _20  and  _21
REMARK   10  A    between atoms: _26  and  _28
REMARK   11  A    between atoms: _28  and  _29
REMARK   12  A    between atoms: _28  and  _31
REMARK   13  A    between atoms: _31  and  _32
REMARK   14  A    between atoms: _37  and  _39
REMARK   15  A    between atoms: _39  and  _40
REMARK   16  A    between atoms: _43  and  _45
REMARK   17  A    between atoms: _45  and  _46
REMARK   18  A    between atoms: _45  and  _48
REMARK   19  A    between atoms: _48  and  _49
REMARK   20  A    between atoms: _55  and  _57
REMARK   21  A    between atoms: _57  and  _58
REMARK   22  A    between atoms: _57  and  _60
REMARK   23  A    between atoms: _60  and  _61
REMARK   24  A    between atoms: _71  and  _73
REMARK   25  A    between atoms: _73  and  _74
REMARK   26  A    between atoms: _73  and  _76
REMARK   27  A    between atoms: _76  and  _77
REMARK   28  A    between atoms: _82  and  _84
REMARK   29  A    between atoms: _84  and  _85
REMARK   30  A    between atoms: _84  and  _87
REMARK   31  A    between atoms: _90  and  _92
REMARK   32  A    between atoms: _92  and  _93
REMARK   33  A    between atoms: _92  and  _95
REMARK   34  A    between atoms: _95  and  _96
REMARK   35  A    between atoms: _101  and  _102
REMARK   36  A    between atoms: _104  and  _106
REMARK   37  A    between atoms: _106  and  _107
REMARK   38  A    between atoms: _109  and  _111
REMARK   39  A    between atoms: _111  and  _112
REMARK   40  A    between atoms: _111  and  _114
REMARK   41  A    between atoms: _114  and  _115
REMARK   42  A    between atoms: _121  and  _123
REMARK   43  A    between atoms: _123  and  _124
REMARK   44  A    between atoms: _123  and  _126
REMARK   45  A    between atoms: _126  and  _127
REMARK   46  A    between atoms: _130  and  _132
REMARK   47  A    between atoms: _132  and  _133
REMARK   48  A    between atoms: _132  and  _135
REMARK   49  A    between atoms: _135  and  _136
REMARK   50  A    between atoms: _138  and  _140
REMARK   51  A    between atoms: _140  and  _141
REMARK   52  A    between atoms: _143  and  _145
REMARK   53  A    between atoms: _145  and  _146
REMARK   54  A    between atoms: _145  and  _148
REMARK   55  A    between atoms: _148  and  _149
REMARK   56  A    between atoms: _152  and  _154
REMARK   57  A    between atoms: _154  and  _155
REMARK   58  A    between atoms: _154  and  _157
REMARK   59  A    between atoms: _160  and  _162
REMARK   60  A    between atoms: _162  and  _163
REMARK   61  A    between atoms: _162  and  _165
REMARK   62  A    between atoms: _168  and  _170
REMARK   63  A    between atoms: _170  and  _171
REMARK   64  A    between atoms: _174  and  _176
REMARK   65  A    between atoms: _176  and  _177
REMARK   66  A    between atoms: _176  and  _179
REMARK   67  A    between atoms: _179  and  _180
REMARK   68  A    between atoms: _184  and  ZN_365
REMARK   69  A    between atoms: _185  and  _187
REMARK   70  A    between atoms: _187  and  _188
REMARK   71  A    between atoms: _187  and  _190
REMARK   72  A    between atoms: _190  and  _191
REMARK   73  A    between atoms: _191  and  _192
REMARK   74  A    between atoms: _195  and  _197
REMARK   75  A    between atoms: _197  and  _198
REMARK   76  A    between atoms: _197  and  _200
REMARK   77  A    between atoms: _200  and  _201
REMARK   78  A    between atoms: _204  and  _206
REMARK   79  A    between atoms: _206  and  _207
REMARK   80  A    between atoms: _206  and  _209
REMARK   81  A    between atoms: _209  and  _210
REMARK   82  A    between atoms: _214  and  ZN_365
REMARK   83  A    between atoms: _215  and  _217
REMARK   84  A    between atoms: _217  and  _218
REMARK   85  A    between atoms: _217  and  _220
REMARK   86  A    between atoms: _220  and  _221
REMARK   87  A    between atoms: _226  and  _227
REMARK   88  A    between atoms: _229  and  _231
REMARK   89  A    between atoms: _231  and  _232
REMARK   90  A    between atoms: _231  and  _234
REMARK   91  A    between atoms: _234  and  _235
REMARK   92  A    between atoms: _240  and  _242
REMARK   93  A    between atoms: _242  and  _243
REMARK   94  A    between atoms: _242  and  _245
REMARK   95  A    between atoms: _245  and  _246
REMARK   96  A    between atoms: _246  and  _247
REMARK   97  A    between atoms: _247  and  _248
REMARK   98  A    between atoms: _248  and  ZN_365
REMARK   99  A    between atoms: _250  and  _252
REMARK  100  A    between atoms: _252  and  _253
REMARK  101  A    between atoms: _252  and  _255
REMARK  102  A    between atoms: _255  and  _256
REMARK  103  A    between atoms: _258  and  _260
REMARK  104  A    between atoms: _260  and  _261
REMARK  105  A    between atoms: _260  and  _263
REMARK  106  A    between atoms: _263  and  _264
REMARK  107  A    between atoms: _267  and  _269
REMARK  108  A    between atoms: _269  and  _270
REMARK  109  A    between atoms: _269  and  _272
REMARK  110  A    between atoms: _272  and  _273
REMARK  111  A    between atoms: _276  and  _278
REMARK  112  A    between atoms: _278  and  _279
REMARK  113  A    between atoms: _281  and  _283
REMARK  114  A    between atoms: _283  and  _284
REMARK  115  A    between atoms: _283  and  _286
REMARK  116  A    between atoms: _289  and  _291
REMARK  117  A    between atoms: _291  and  _292
REMARK  118  A    between atoms: _291  and  _294
REMARK  119  A    between atoms: _294  and  _295
REMARK  120  A    between atoms: _300  and  _301
REMARK  121  A    between atoms: _303  and  _305
REMARK  122  A    between atoms: _305  and  _306
REMARK  123  A    between atoms: _305  and  _308
REMARK  124  A    between atoms: _308  and  _309
REMARK  125  A    between atoms: _312  and  _314
REMARK  126  A    between atoms: _314  and  _315
REMARK  127  A    between atoms: _314  and  _317
REMARK  128  A    between atoms: _317  and  _318
REMARK  129  A    between atoms: _318  and  _319
REMARK  130  A    between atoms: _319  and  _320
REMARK  131  A    between atoms: _329  and  _331
REMARK  132  A    between atoms: _331  and  _332
REMARK  133  A    between atoms: _331  and  _334
REMARK  134  A    between atoms: _334  and  _335
REMARK  135  A    between atoms: _338  and  _340
REMARK  136  A    between atoms: _340  and  _341
REMARK  137  A    between atoms: _340  and  _343
REMARK  138  A    between atoms: _346  and  _348
REMARK  139  A    between atoms: _348  and  _349
REMARK  140  A    between atoms: _348  and  _351
REMARK  141  A    between atoms: _351  and  _352
REMARK  142  A    between atoms: _357  and  _359
REMARK  143  A    between atoms: _359  and  _360
REMARK  144  A    between atoms: _359  and  _362
REMARK  145  A    between atoms: _362  and  _363
REMARK                            x       y       z     vdW  Elec       q    Type
REMARK                         _______ _______ _______ _____ _____    ______ ____
ROOT
ATOM      1  O   HOH     1      57.957  12.841  -3.307  0.00  0.00    +0.000 OA
ENDROOT
TORSDOF 0
REMARK  Name = ../refined-set-2016/2tmn/2tmn_pocket.pdb
REMARK  145 active torsions:
REMARK  status: ('A' for Active; 'I' for Inactive)
REMARK    1  A    between atoms: _1  and  _3
REMARK    2  A    between atoms: _3  and  _4
REMARK    3  A    between atoms: _3  and  _6
REMARK    4  A    between atoms: _6  and  _7
REMARK    5  A    between atoms: _12  and  _13
REMARK    6  A    between atoms: _15  and  _17
REMARK    7  A    between atoms: _17  and  _18
REMARK    8  A    between atoms: _17  and  _20
REMARK    9  A    between atoms: _20  and  _21
REMARK   10  A    between atoms: _26  and  _28
REMARK   11  A    between atoms: _28  and  _29
REMARK   12  A    between atoms: _28  and  _31
REMARK   13  A    between atoms: _31  and  _32
REMARK   14  A    between atoms: _37  and  _39
REMARK   15  A    between atoms: _39  and  _40
REMARK   16  A    between atoms: _43  and  _45
REMARK   17  A    between atoms: _45  and  _46
REMARK   18  A    between atoms: _45  and  _48
REMARK   19  A    between atoms: _48  and  _49
REMARK   20  A    between atoms: _55  and  _57
REMARK   21  A    between atoms: _57  and  _58
REMARK   22  A    between atoms: _57  and  _60
REMARK   23  A    between atoms: _60  and  _61
REMARK   24  A    between atoms: _71  and  _73
REMARK   25  A    between atoms: _73  and  _74
REMARK   26  A    between atoms: _73  and  _76
REMARK   27  A    between atoms: _76  and  _77
REMARK   28  A    between atoms: _82  and  _84
REMARK   29  A    between atoms: _84  and  _85
REMARK   30  A    between atoms: _84  and  _87
REMARK   31  A    between atoms: _90  and  _92
REMARK   32  A    between atoms: _92  and  _93
REMARK   33  A    between atoms: _92  and  _95
REMARK   34  A    between atoms: _95  and  _96
REMARK   35  A    between atoms: _101  and  _102
REMARK   36  A    between atoms: _104  and  _106
REMARK   37  A    between atoms: _106  and  _107
REMARK   38  A    between atoms: _109  and  _111
REMARK   39  A    between atoms: _111  and  _112
REMARK   40  A    between atoms: _111  and  _114
REMARK   41  A    between atoms: _114  and  _115
REMARK   42  A    between atoms: _121  and  _123
REMARK   43  A    between atoms: _123  and  _124
REMARK   44  A    between atoms: _123  and  _126
REMARK   45  A    between atoms: _126  and  _127
REMARK   46  A    between atoms: _130  and  _132
REMARK   47  A    between atoms: _132  and  _133
REMARK   48  A    between atoms: _132  and  _135
REMARK   49  A    between atoms: _135  and  _136
REMARK   50  A    between atoms: _138  and  _140
REMARK   51  A    between atoms: _140  and  _141
REMARK   52  A    between atoms: _143  and  _145
REMARK   53  A    between atoms: _145  and  _146
REMARK   54  A    between atoms: _145  and  _148
REMARK   55  A    between atoms: _148  and  _149
REMARK   56  A    between atoms: _152  and  _154
REMARK   57  A    between atoms: _154  and  _155
REMARK   58  A    between atoms: _154  and  _157
REMARK   59  A    between atoms: _160  and  _162
REMARK   60  A    between atoms: _162  and  _163
REMARK   61  A    between atoms: _162  and  _165
REMARK   62  A    between atoms: _168  and  _170
REMARK   63  A    between atoms: _170  and  _171
REMARK   64  A    between atoms: _174  and  _176
REMARK   65  A    between atoms: _176  and  _177
REMARK   66  A    between atoms: _176  and  _179
REMARK   67  A    between atoms: _179  and  _180
REMARK   68  A    between atoms: _184  and  ZN_365
REMARK   69  A    between atoms: _185  and  _187
REMARK   70  A    between atoms: _187  and  _188
REMARK   71  A    between atoms: _187  and  _190
REMARK   72  A    between atoms: _190  and  _191
REMARK   73  A    between atoms: _191  and  _192
REMARK   74  A    between atoms: _195  and  _197
REMARK   75  A    between atoms: _197  and  _198
REMARK   76  A    between atoms: _197  and  _200
REMARK   77  A    between atoms: _200  and  _201
REMARK   78  A    between atoms: _204  and  _206
REMARK   79  A    between atoms: _206  and  _207
REMARK   80  A    between atoms: _206  and  _209
REMARK   81  A    between atoms: _209  and  _210
REMARK   82  A    between atoms: _214  and  ZN_365
REMARK   83  A    between atoms: _215  and  _217
REMARK   84  A    between atoms: _217  and  _218
REMARK   85  A    between atoms: _217  and  _220
REMARK   86  A    between atoms: _220  and  _221
REMARK   87  A    between atoms: _226  and  _227
REMARK   88  A    between atoms: _229  and  _231
REMARK   89  A    between atoms: _231  and  _232
REMARK   90  A    between atoms: _231  and  _234
REMARK   91  A    between atoms: _234  and  _235
REMARK   92  A    between atoms: _240  and  _242
REMARK   93  A    between atoms: _242  and  _243
REMARK   94  A    between atoms: _242  and  _245
REMARK   95  A    between atoms: _245  and  _246
REMARK   96  A    between atoms: _246  and  _247
REMARK   97  A    between atoms: _247  and  _248
REMARK   98  A    between atoms: _248  and  ZN_365
REMARK   99  A    between atoms: _250  and  _252
REMARK  100  A    between atoms: _252  and  _253
REMARK  101  A    between atoms: _252  and  _255
REMARK  102  A    between atoms: _255  and  _256
REMARK  103  A    between atoms: _258  and  _260
REMARK  104  A    between atoms: _260  and  _261
REMARK  105  A    between atoms: _260  and  _263
REMARK  106  A    between atoms: _263  and  _264
REMARK  107  A    between atoms: _267  and  _269
REMARK  108  A    between atoms: _269  and  _270
REMARK  109  A    between atoms: _269  and  _272
REMARK  110  A    between atoms: _272  and  _273
REMARK  111  A    between atoms: _276  and  _278
REMARK  112  A    between atoms: _278  and  _279
REMARK  113  A    between atoms: _281  and  _283
REMARK  114  A    between atoms: _283  and  _284
REMARK  115  A    between atoms: _283  and  _286
REMARK  116  A    between atoms: _289  and  _291
REMARK  117  A    between atoms: _291  and  _292
REMARK  118  A    between atoms: _291  and  _294
REMARK  119  A    between atoms: _294  and  _295
REMARK  120  A    between atoms: _300  and  _301
REMARK  121  A    between atoms: _303  and  _305
REMARK  122  A    between atoms: _305  and  _306
REMARK  123  A    between atoms: _305  and  _308
REMARK  124  A    between atoms: _308  and  _309
REMARK  125  A    between atoms: _312  and  _314
REMARK  126  A    between atoms: _314  and  _315
REMARK  127  A    between atoms: _314  and  _317
REMARK  128  A    between atoms: _317  and  _318
REMARK  129  A    between atoms: _318  and  _319
REMARK  130  A    between atoms: _319  and  _320
REMARK  131  A    between atoms: _329  and  _331
REMARK  132  A    between atoms: _331  and  _332
REMARK  133  A    between atoms: _331  and  _334
REMARK  134  A    between atoms: _334  and  _335
REMARK  135  A    between atoms: _338  and  _340
REMARK  136  A    between atoms: _340  and  _341
REMARK  137  A    between atoms: _340  and  _343
REMARK  138  A    between atoms: _346  and  _348
REMARK  139  A    between atoms: _348  and  _349
REMARK  140  A    between atoms: _348  and  _351
REMARK  141  A    between atoms: _351  and  _352
REMARK  142  A    between atoms: _357  and  _359
REMARK  143  A    between atoms: _359  and  _360
REMARK  144  A    between atoms: _359  and  _362
REMARK  145  A    between atoms: _362  and  _363
REMARK                            x       y       z     vdW  Elec       q    Type
REMARK                         _______ _______ _______ _____ _____    ______ ____
ROOT
ATOM      1  O   HOH     1      51.989  12.382  -1.496  0.00  0.00    +0.000 OA
ENDROOT
TORSDOF 0
REMARK  Name = ../refined-set-2016/2tmn/2tmn_pocket.pdb
REMARK  145 active torsions:
REMARK  status: ('A' for Active; 'I' for Inactive)
REMARK    1  A    between atoms: _1  and  _3
REMARK    2  A    between atoms: _3  and  _4
REMARK    3  A    between atoms: _3  and  _6
REMARK    4  A    between atoms: _6  and  _7
REMARK    5  A    between atoms: _12  and  _13
REMARK    6  A    between atoms: _15  and  _17
REMARK    7  A    between atoms: _17  and  _18
REMARK    8  A    between atoms: _17  and  _20
REMARK    9  A    between atoms: _20  and  _21
REMARK   10  A    between atoms: _26  and  _28
REMARK   11  A    between atoms: _28  and  _29
REMARK   12  A    between atoms: _28  and  _31
REMARK   13  A    between atoms: _31  and  _32
REMARK   14  A    between atoms: _37  and  _39
REMARK   15  A    between atoms: _39  and  _40
REMARK   16  A    between atoms: _43  and  _45
REMARK   17  A    between atoms: _45  and  _46
REMARK   18  A    between atoms: _45  and  _48
REMARK   19  A    between atoms: _48  and  _49
REMARK   20  A    between atoms: _55  and  _57
REMARK   21  A    between atoms: _57  and  _58
REMARK   22  A    between atoms: _57  and  _60
REMARK   23  A    between atoms: _60  and  _61
REMARK   24  A    between atoms: _71  and  _73
REMARK   25  A    between atoms: _73  and  _74
REMARK   26  A    between atoms: _73  and  _76
REMARK   27  A    between atoms: _76  and  _77
REMARK   28  A    between atoms: _82  and  _84
REMARK   29  A    between atoms: _84  and  _85
REMARK   30  A    between atoms: _84  and  _87
REMARK   31  A    between atoms: _90  and  _92
REMARK   32  A    between atoms: _92  and  _93
REMARK   33  A    between atoms: _92  and  _95
REMARK   34  A    between atoms: _95  and  _96
REMARK   35  A    between atoms: _101  and  _102
REMARK   36  A    between atoms: _104  and  _106
REMARK   37  A    between atoms: _106  and  _107
REMARK   38  A    between atoms: _109  and  _111
REMARK   39  A    between atoms: _111  and  _112
REMARK   40  A    between atoms: _111  and  _114
REMARK   41  A    between atoms: _114  and  _115
REMARK   42  A    between atoms: _121  and  _123
REMARK   43  A    between atoms: _123  and  _124
REMARK   44  A    between atoms: _123  and  _126
REMARK   45  A    between atoms: _126  and  _127
REMARK   46  A    between atoms: _130  and  _132
REMARK   47  A    between atoms: _132  and  _133
REMARK   48  A    between atoms: _132  and  _135
REMARK   49  A    between atoms: _135  and  _136
REMARK   50  A    between atoms: _138  and  _140
REMARK   51  A    between atoms: _140  and  _141
REMARK   52  A    between atoms: _143  and  _145
REMARK   53  A    between atoms: _145  and  _146
REMARK   54  A    between atoms: _145  and  _148
REMARK   55  A    between atoms: _148  and  _149
REMARK   56  A    between atoms: _152  and  _154
REMARK   57  A    between atoms: _154  and  _155
REMARK   58  A    between atoms: _154  and  _157
REMARK   59  A    between atoms: _160  and  _162
REMARK   60  A    between atoms: _162  and  _163
REMARK   61  A    between atoms: _162  and  _165
REMARK   62  A    between atoms: _168  and  _170
REMARK   63  A    between atoms: _170  and  _171
REMARK   64  A    between atoms: _174  and  _176
REMARK   65  A    between atoms: _176  and  _177
REMARK   66  A    between atoms: _176  and  _179
REMARK   67  A    between atoms: _179  and  _180
REMARK   68  A    between atoms: _184  and  ZN_365
REMARK   69  A    between atoms: _185  and  _187
REMARK   70  A    between atoms: _187  and  _188
REMARK   71  A    between atoms: _187  and  _190
REMARK   72  A    between atoms: _190  and  _191
REMARK   73  A    between atoms: _191  and  _192
REMARK   74  A    between atoms: _195  and  _197
REMARK   75  A    between atoms: _197  and  _198
REMARK   76  A    between atoms: _197  and  _200
REMARK   77  A    between atoms: _200  and  _201
REMARK   78  A    between atoms: _204  and  _206
REMARK   79  A    between atoms: _206  and  _207
REMARK   80  A    between atoms: _206  and  _209
REMARK   81  A    between atoms: _209  and  _210
REMARK   82  A    between atoms: _214  and  ZN_365
REMARK   83  A    between atoms: _215  and  _217
REMARK   84  A    between atoms: _217  and  _218
REMARK   85  A    between atoms: _217  and  _220
REMARK   86  A    between atoms: _220  and  _221
REMARK   87  A    between atoms: _226  and  _227
REMARK   88  A    between atoms: _229  and  _231
REMARK   89  A    between atoms: _231  and  _232
REMARK   90  A    between atoms: _231  and  _234
REMARK   91  A    between atoms: _234  and  _235
REMARK   92  A    between atoms: _240  and  _242
REMARK   93  A    between atoms: _242  and  _243
REMARK   94  A    between atoms: _242  and  _245
REMARK   95  A    between atoms: _245  and  _246
REMARK   96  A    between atoms: _246  and  _247
REMARK   97  A    between atoms: _247  and  _248
REMARK   98  A    between atoms: _248  and  ZN_365
REMARK   99  A    between atoms: _250  and  _252
REMARK  100  A    between atoms: _252  and  _253
REMARK  101  A    between atoms: _252  and  _255
REMARK  102  A    between atoms: _255  and  _256
REMARK  103  A    between atoms: _258  and  _260
REMARK  104  A    between atoms: _260  and  _261
REMARK  105  A    between atoms: _260  and  _263
REMARK  106  A    between atoms: _263  and  _264
REMARK  107  A    between atoms: _267  and  _269
REMARK  108  A    between atoms: _269  and  _270
REMARK  109  A    between atoms: _269  and  _272
REMARK  110  A    between atoms: _272  and  _273
REMARK  111  A    between atoms: _276  and  _278
REMARK  112  A    between atoms: _278  and  _279
REMARK  113  A    between atoms: _281  and  _283
REMARK  114  A    between atoms: _283  and  _284
REMARK  115  A    between atoms: _283  and  _286
REMARK  116  A    between atoms: _289  and  _291
REMARK  117  A    between atoms: _291  and  _292
REMARK  118  A    between atoms: _291  and  _294
REMARK  119  A    between atoms: _294  and  _295
REMARK  120  A    between atoms: _300  and  _301
REMARK  121  A    between atoms: _303  and  _305
REMARK  122  A    between atoms: _305  and  _306
REMARK  123  A    between atoms: _305  and  _308
REMARK  124  A    between atoms: _308  and  _309
REMARK  125  A    between atoms: _312  and  _314
REMARK  126  A    between atoms: _314  and  _315
REMARK  127  A    between atoms: _314  and  _317
REMARK  128  A    between atoms: _317  and  _318
REMARK  129  A    between atoms: _318  and  _319
REMARK  130  A    between atoms: _319  and  _320
REMARK  131  A    between atoms: _329  and  _331
REMARK  132  A    between atoms: _331  and  _332
REMARK  133  A    between atoms: _331  and  _334
REMARK  134  A    between atoms: _334  and  _335
REMARK  135  A    between atoms: _338  and  _340
REMARK  136  A    between atoms: _340  and  _341
REMARK  137  A    between atoms: _340  and  _343
REMARK  138  A    between atoms: _346  and  _348
REMARK  139  A    between atoms: _348  and  _349
REMARK  140  A    between atoms: _348  and  _351
REMARK  141  A    between atoms: _351  and  _352
REMARK  142  A    between atoms: _357  and  _359
REMARK  143  A    between atoms: _359  and  _360
REMARK  144  A    between atoms: _359  and  _362
REMARK  145  A    between atoms: _362  and  _363
REMARK                            x       y       z     vdW  Elec       q    Type
REMARK                         _______ _______ _______ _____ _____    ______ ____
ROOT
ATOM      1  O   HOH     1      44.687  19.538 -12.047  0.00  0.00    +0.000 OA
ENDROOT
TORSDOF 0
REMARK  Name = ../refined-set-2016/2tmn/2tmn_pocket.pdb
REMARK  145 active torsions:
REMARK  status: ('A' for Active; 'I' for Inactive)
REMARK    1  A    between atoms: _1  and  _3
REMARK    2  A    between atoms: _3  and  _4
REMARK    3  A    between atoms: _3  and  _6
REMARK    4  A    between atoms: _6  and  _7
REMARK    5  A    between atoms: _12  and  _13
REMARK    6  A    between atoms: _15  and  _17
REMARK    7  A    between atoms: _17  and  _18
REMARK    8  A    between atoms: _17  and  _20
REMARK    9  A    between atoms: _20  and  _21
REMARK   10  A    between atoms: _26  and  _28
REMARK   11  A    between atoms: _28  and  _29
REMARK   12  A    between atoms: _28  and  _31
REMARK   13  A    between atoms: _31  and  _32
REMARK   14  A    between atoms: _37  and  _39
REMARK   15  A    between atoms: _39  and  _40
REMARK   16  A    between atoms: _43  and  _45
REMARK   17  A    between atoms: _45  and  _46
REMARK   18  A    between atoms: _45  and  _48
REMARK   19  A    between atoms: _48  and  _49
REMARK   20  A    between atoms: _55  and  _57
REMARK   21  A    between atoms: _57  and  _58
REMARK   22  A    between atoms: _57  and  _60
REMARK   23  A    between atoms: _60  and  _61
REMARK   24  A    between atoms: _71  and  _73
REMARK   25  A    between atoms: _73  and  _74
REMARK   26  A    between atoms: _73  and  _76
REMARK   27  A    between atoms: _76  and  _77
REMARK   28  A    between atoms: _82  and  _84
REMARK   29  A    between atoms: _84  and  _85
REMARK   30  A    between atoms: _84  and  _87
REMARK   31  A    between atoms: _90  and  _92
REMARK   32  A    between atoms: _92  and  _93
REMARK   33  A    between atoms: _92  and  _95
REMARK   34  A    between atoms: _95  and  _96
REMARK   35  A    between atoms: _101  and  _102
REMARK   36  A    between atoms: _104  and  _106
REMARK   37  A    between atoms: _106  and  _107
REMARK   38  A    between atoms: _109  and  _111
REMARK   39  A    between atoms: _111  and  _112
REMARK   40  A    between atoms: _111  and  _114
REMARK   41  A    between atoms: _114  and  _115
REMARK   42  A    between atoms: _121  and  _123
REMARK   43  A    between atoms: _123  and  _124
REMARK   44  A    between atoms: _123  and  _126
REMARK   45  A    between atoms: _126  and  _127
REMARK   46  A    between atoms: _130  and  _132
REMARK   47  A    between atoms: _132  and  _133
REMARK   48  A    between atoms: _132  and  _135
REMARK   49  A    between atoms: _135  and  _136
REMARK   50  A    between atoms: _138  and  _140
REMARK   51  A    between atoms: _140  and  _141
REMARK   52  A    between atoms: _143  and  _145
REMARK   53  A    between atoms: _145  and  _146
REMARK   54  A    between atoms: _145  and  _148
REMARK   55  A    between atoms: _148  and  _149
REMARK   56  A    between atoms: _152  and  _154
REMARK   57  A    between atoms: _154  and  _155
REMARK   58  A    between atoms: _154  and  _157
REMARK   59  A    between atoms: _160  and  _162
REMARK   60  A    between atoms: _162  and  _163
REMARK   61  A    between atoms: _162  and  _165
REMARK   62  A    between atoms: _168  and  _170
REMARK   63  A    between atoms: _170  and  _171
REMARK   64  A    between atoms: _174  and  _176
REMARK   65  A    between atoms: _176  and  _177
REMARK   66  A    between atoms: _176  and  _179
REMARK   67  A    between atoms: _179  and  _180
REMARK   68  A    between atoms: _184  and  ZN_365
REMARK   69  A    between atoms: _185  and  _187
REMARK   70  A    between atoms: _187  and  _188
REMARK   71  A    between atoms: _187  and  _190
REMARK   72  A    between atoms: _190  and  _191
REMARK   73  A    between atoms: _191  and  _192
REMARK   74  A    between atoms: _195  and  _197
REMARK   75  A    between atoms: _197  and  _198
REMARK   76  A    between atoms: _197  and  _200
REMARK   77  A    between atoms: _200  and  _201
REMARK   78  A    between atoms: _204  and  _206
REMARK   79  A    between atoms: _206  and  _207
REMARK   80  A    between atoms: _206  and  _209
REMARK   81  A    between atoms: _209  and  _210
REMARK   82  A    between atoms: _214  and  ZN_365
REMARK   83  A    between atoms: _215  and  _217
REMARK   84  A    between atoms: _217  and  _218
REMARK   85  A    between atoms: _217  and  _220
REMARK   86  A    between atoms: _220  and  _221
REMARK   87  A    between atoms: _226  and  _227
REMARK   88  A    between atoms: _229  and  _231
REMARK   89  A    between atoms: _231  and  _232
REMARK   90  A    between atoms: _231  and  _234
REMARK   91  A    between atoms: _234  and  _235
REMARK   92  A    between atoms: _240  and  _242
REMARK   93  A    between atoms: _242  and  _243
REMARK   94  A    between atoms: _242  and  _245
REMARK   95  A    between atoms: _245  and  _246
REMARK   96  A    between atoms: _246  and  _247
REMARK   97  A    between atoms: _247  and  _248
REMARK   98  A    between atoms: _248  and  ZN_365
REMARK   99  A    between atoms: _250  and  _252
REMARK  100  A    between atoms: _252  and  _253
REMARK  101  A    between atoms: _252  and  _255
REMARK  102  A    between atoms: _255  and  _256
REMARK  103  A    between atoms: _258  and  _260
REMARK  104  A    between atoms: _260  and  _261
REMARK  105  A    between atoms: _260  and  _263
REMARK  106  A    between atoms: _263  and  _264
REMARK  107  A    between atoms: _267  and  _269
REMARK  108  A    between atoms: _269  and  _270
REMARK  109  A    between atoms: _269  and  _272
REMARK  110  A    between atoms: _272  and  _273
REMARK  111  A    between atoms: _276  and  _278
REMARK  112  A    between atoms: _278  and  _279
REMARK  113  A    between atoms: _281  and  _283
REMARK  114  A    between atoms: _283  and  _284
REMARK  115  A    between atoms: _283  and  _286
REMARK  116  A    between atoms: _289  and  _291
REMARK  117  A    between atoms: _291  and  _292
REMARK  118  A    between atoms: _291  and  _294
REMARK  119  A    between atoms: _294  and  _295
REMARK  120  A    between atoms: _300  and  _301
REMARK  121  A    between atoms: _303  and  _305
REMARK  122  A    between atoms: _305  and  _306
REMARK  123  A    between atoms: _305  and  _308
REMARK  124  A    between atoms: _308  and  _309
REMARK  125  A    between atoms: _312  and  _314
REMARK  126  A    between atoms: _314  and  _315
REMARK  127  A    between atoms: _314  and  _317
REMARK  128  A    between atoms: _317  and  _318
REMARK  129  A    between atoms: _318  and  _319
REMARK  130  A    between atoms: _319  and  _320
REMARK  131  A    between atoms: _329  and  _331
REMARK  132  A    between atoms: _331  and  _332
REMARK  133  A    between atoms: _331  and  _334
REMARK  134  A    between atoms: _334  and  _335
REMARK  135  A    between atoms: _338  and  _340
REMARK  136  A    between atoms: _340  and  _341
REMARK  137  A    between atoms: _340  and  _343
REMARK  138  A    between atoms: _346  and  _348
REMARK  139  A    between atoms: _348  and  _349
REMARK  140  A    between atoms: _348  and  _351
REMARK  141  A    between atoms: _351  and  _352
REMARK  142  A    between atoms: _357  and  _359
REMARK  143  A    between atoms: _359  and  _360
REMARK  144  A    between atoms: _359  and  _362
REMARK  145  A    between atoms: _362  and  _363
REMARK                            x       y       z     vdW  Elec       q    Type
REMARK                         _______ _______ _______ _____ _____    ______ ____
ROOT
ATOM      1  O   HOH     1      51.057  17.429  -9.378  0.00  0.00    +0.000 OA
ENDROOT
TORSDOF 0
REMARK  Name = ../refined-set-2016/2tmn/2tmn_pocket.pdb
REMARK  145 active torsions:
REMARK  status: ('A' for Active; 'I' for Inactive)
REMARK    1  A    between atoms: _1  and  _3
REMARK    2  A    between atoms: _3  and  _4
REMARK    3  A    between atoms: _3  and  _6
REMARK    4  A    between atoms: _6  and  _7
REMARK    5  A    between atoms: _12  and  _13
REMARK    6  A    between atoms: _15  and  _17
REMARK    7  A    between atoms: _17  and  _18
REMARK    8  A    between atoms: _17  and  _20
REMARK    9  A    between atoms: _20  and  _21
REMARK   10  A    between atoms: _26  and  _28
REMARK   11  A    between atoms: _28  and  _29
REMARK   12  A    between atoms: _28  and  _31
REMARK   13  A    between atoms: _31  and  _32
REMARK   14  A    between atoms: _37  and  _39
REMARK   15  A    between atoms: _39  and  _40
REMARK   16  A    between atoms: _43  and  _45
REMARK   17  A    between atoms: _45  and  _46
REMARK   18  A    between atoms: _45  and  _48
REMARK   19  A    between atoms: _48  and  _49
REMARK   20  A    between atoms: _55  and  _57
REMARK   21  A    between atoms: _57  and  _58
REMARK   22  A    between atoms: _57  and  _60
REMARK   23  A    between atoms: _60  and  _61
REMARK   24  A    between atoms: _71  and  _73
REMARK   25  A    between atoms: _73  and  _74
REMARK   26  A    between atoms: _73  and  _76
REMARK   27  A    between atoms: _76  and  _77
REMARK   28  A    between atoms: _82  and  _84
REMARK   29  A    between atoms: _84  and  _85
REMARK   30  A    between atoms: _84  and  _87
REMARK   31  A    between atoms: _90  and  _92
REMARK   32  A    between atoms: _92  and  _93
REMARK   33  A    between atoms: _92  and  _95
REMARK   34  A    between atoms: _95  and  _96
REMARK   35  A    between atoms: _101  and  _102
REMARK   36  A    between atoms: _104  and  _106
REMARK   37  A    between atoms: _106  and  _107
REMARK   38  A    between atoms: _109  and  _111
REMARK   39  A    between atoms: _111  and  _112
REMARK   40  A    between atoms: _111  and  _114
REMARK   41  A    between atoms: _114  and  _115
REMARK   42  A    between atoms: _121  and  _123
REMARK   43  A    between atoms: _123  and  _124
REMARK   44  A    between atoms: _123  and  _126
REMARK   45  A    between atoms: _126  and  _127
REMARK   46  A    between atoms: _130  and  _132
REMARK   47  A    between atoms: _132  and  _133
REMARK   48  A    between atoms: _132  and  _135
REMARK   49  A    between atoms: _135  and  _136
REMARK   50  A    between atoms: _138  and  _140
REMARK   51  A    between atoms: _140  and  _141
REMARK   52  A    between atoms: _143  and  _145
REMARK   53  A    between atoms: _145  and  _146
REMARK   54  A    between atoms: _145  and  _148
REMARK   55  A    between atoms: _148  and  _149
REMARK   56  A    between atoms: _152  and  _154
REMARK   57  A    between atoms: _154  and  _155
REMARK   58  A    between atoms: _154  and  _157
REMARK   59  A    between atoms: _160  and  _162
REMARK   60  A    between atoms: _162  and  _163
REMARK   61  A    between atoms: _162  and  _165
REMARK   62  A    between atoms: _168  and  _170
REMARK   63  A    between atoms: _170  and  _171
REMARK   64  A    between atoms: _174  and  _176
REMARK   65  A    between atoms: _176  and  _177
REMARK   66  A    between atoms: _176  and  _179
REMARK   67  A    between atoms: _179  and  _180
REMARK   68  A    between atoms: _184  and  ZN_365
REMARK   69  A    between atoms: _185  and  _187
REMARK   70  A    between atoms: _187  and  _188
REMARK   71  A    between atoms: _187  and  _190
REMARK   72  A    between atoms: _190  and  _191
REMARK   73  A    between atoms: _191  and  _192
REMARK   74  A    between atoms: _195  and  _197
REMARK   75  A    between atoms: _197  and  _198
REMARK   76  A    between atoms: _197  and  _200
REMARK   77  A    between atoms: _200  and  _201
REMARK   78  A    between atoms: _204  and  _206
REMARK   79  A    between atoms: _206  and  _207
REMARK   80  A    between atoms: _206  and  _209
REMARK   81  A    between atoms: _209  and  _210
REMARK   82  A    between atoms: _214  and  ZN_365
REMARK   83  A    between atoms: _215  and  _217
REMARK   84  A    between atoms: _217  and  _218
REMARK   85  A    between atoms: _217  and  _220
REMARK   86  A    between atoms: _220  and  _221
REMARK   87  A    between atoms: _226  and  _227
REMARK   88  A    between atoms: _229  and  _231
REMARK   89  A    between atoms: _231  and  _232
REMARK   90  A    between atoms: _231  and  _234
REMARK   91  A    between atoms: _234  and  _235
REMARK   92  A    between atoms: _240  and  _242
REMARK   93  A    between atoms: _242  and  _243
REMARK   94  A    between atoms: _242  and  _245
REMARK   95  A    between atoms: _245  and  _246
REMARK   96  A    between atoms: _246  and  _247
REMARK   97  A    between atoms: _247  and  _248
REMARK   98  A    between atoms: _248  and  ZN_365
REMARK   99  A    between atoms: _250  and  _252
REMARK  100  A    between atoms: _252  and  _253
REMARK  101  A    between atoms: _252  and  _255
REMARK  102  A    between atoms: _255  and  _256
REMARK  103  A    between atoms: _258  and  _260
REMARK  104  A    between atoms: _260  and  _261
REMARK  105  A    between atoms: _260  and  _263
REMARK  106  A    between atoms: _263  and  _264
REMARK  107  A    between atoms: _267  and  _269
REMARK  108  A    between atoms: _269  and  _270
REMARK  109  A    between atoms: _269  and  _272
REMARK  110  A    between atoms: _272  and  _273
REMARK  111  A    between atoms: _276  and  _278
REMARK  112  A    between atoms: _278  and  _279
REMARK  113  A    between atoms: _281  and  _283
REMARK  114  A    between atoms: _283  and  _284
REMARK  115  A    between atoms: _283  and  _286
REMARK  116  A    between atoms: _289  and  _291
REMARK  117  A    between atoms: _291  and  _292
REMARK  118  A    between atoms: _291  and  _294
REMARK  119  A    between atoms: _294  and  _295
REMARK  120  A    between atoms: _300  and  _301
REMARK  121  A    between atoms: _303  and  _305
REMARK  122  A    between atoms: _305  and  _306
REMARK  123  A    between atoms: _305  and  _308
REMARK  124  A    between atoms: _308  and  _309
REMARK  125  A    between atoms: _312  and  _314
REMARK  126  A    between atoms: _314  and  _315
REMARK  127  A    between atoms: _314  and  _317
REMARK  128  A    between atoms: _317  and  _318
REMARK  129  A    between atoms: _318  and  _319
REMARK  130  A    between atoms: _319  and  _320
REMARK  131  A    between atoms: _329  and  _331
REMARK  132  A    between atoms: _331  and  _332
REMARK  133  A    between atoms: _331  and  _334
REMARK  134  A    between atoms: _334  and  _335
REMARK  135  A    between atoms: _338  and  _340
REMARK  136  A    between atoms: _340  and  _341
REMARK  137  A    between atoms: _340  and  _343
REMARK  138  A    between atoms: _346  and  _348
REMARK  139  A    between atoms: _348  and  _349
REMARK  140  A    between atoms: _348  and  _351
REMARK  141  A    between atoms: _351  and  _352
REMARK  142  A    between atoms: _357  and  _359
REMARK  143  A    between atoms: _359  and  _360
REMARK  144  A    between atoms: _359  and  _362
REMARK  145  A    between atoms: _362  and  _363
REMARK                            x       y       z     vdW  Elec       q    Type
REMARK                         _______ _______ _______ _____ _____    ______ ____
ROOT
ATOM      1  O   HOH     1      48.556  16.734  -6.940  0.00  0.00    +0.000 OA
ENDROOT
TORSDOF 0
REMARK  Name = ../refined-set-2016/2tmn/2tmn_pocket.pdb
REMARK  145 active torsions:
REMARK  status: ('A' for Active; 'I' for Inactive)
REMARK    1  A    between atoms: _1  and  _3
REMARK    2  A    between atoms: _3  and  _4
REMARK    3  A    between atoms: _3  and  _6
REMARK    4  A    between atoms: _6  and  _7
REMARK    5  A    between atoms: _12  and  _13
REMARK    6  A    between atoms: _15  and  _17
REMARK    7  A    between atoms: _17  and  _18
REMARK    8  A    between atoms: _17  and  _20
REMARK    9  A    between atoms: _20  and  _21
REMARK   10  A    between atoms: _26  and  _28
REMARK   11  A    between atoms: _28  and  _29
REMARK   12  A    between atoms: _28  and  _31
REMARK   13  A    between atoms: _31  and  _32
REMARK   14  A    between atoms: _37  and  _39
REMARK   15  A    between atoms: _39  and  _40
REMARK   16  A    between atoms: _43  and  _45
REMARK   17  A    between atoms: _45  and  _46
REMARK   18  A    between atoms: _45  and  _48
REMARK   19  A    between atoms: _48  and  _49
REMARK   20  A    between atoms: _55  and  _57
REMARK   21  A    between atoms: _57  and  _58
REMARK   22  A    between atoms: _57  and  _60
REMARK   23  A    between atoms: _60  and  _61
REMARK   24  A    between atoms: _71  and  _73
REMARK   25  A    between atoms: _73  and  _74
REMARK   26  A    between atoms: _73  and  _76
REMARK   27  A    between atoms: _76  and  _77
REMARK   28  A    between atoms: _82  and  _84
REMARK   29  A    between atoms: _84  and  _85
REMARK   30  A    between atoms: _84  and  _87
REMARK   31  A    between atoms: _90  and  _92
REMARK   32  A    between atoms: _92  and  _93
REMARK   33  A    between atoms: _92  and  _95
REMARK   34  A    between atoms: _95  and  _96
REMARK   35  A    between atoms: _101  and  _102
REMARK   36  A    between atoms: _104  and  _106
REMARK   37  A    between atoms: _106  and  _107
REMARK   38  A    between atoms: _109  and  _111
REMARK   39  A    between atoms: _111  and  _112
REMARK   40  A    between atoms: _111  and  _114
REMARK   41  A    between atoms: _114  and  _115
REMARK   42  A    between atoms: _121  and  _123
REMARK   43  A    between atoms: _123  and  _124
REMARK   44  A    between atoms: _123  and  _126
REMARK   45  A    between atoms: _126  and  _127
REMARK   46  A    between atoms: _130  and  _132
REMARK   47  A    between atoms: _132  and  _133
REMARK   48  A    between atoms: _132  and  _135
REMARK   49  A    between atoms: _135  and  _136
REMARK   50  A    between atoms: _138  and  _140
REMARK   51  A    between atoms: _140  and  _141
REMARK   52  A    between atoms: _143  and  _145
REMARK   53  A    between atoms: _145  and  _146
REMARK   54  A    between atoms: _145  and  _148
REMARK   55  A    between atoms: _148  and  _149
REMARK   56  A    between atoms: _152  and  _154
REMARK   57  A    between atoms: _154  and  _155
REMARK   58  A    between atoms: _154  and  _157
REMARK   59  A    between atoms: _160  and  _162
REMARK   60  A    between atoms: _162  and  _163
REMARK   61  A    between atoms: _162  and  _165
REMARK   62  A    between atoms: _168  and  _170
REMARK   63  A    between atoms: _170  and  _171
REMARK   64  A    between atoms: _174  and  _176
REMARK   65  A    between atoms: _176  and  _177
REMARK   66  A    between atoms: _176  and  _179
REMARK   67  A    between atoms: _179  and  _180
REMARK   68  A    between atoms: _184  and  ZN_365
REMARK   69  A    between atoms: _185  and  _187
REMARK   70  A    between atoms: _187  and  _188
REMARK   71  A    between atoms: _187  and  _190
REMARK   72  A    between atoms: _190  and  _191
REMARK   73  A    between atoms: _191  and  _192
REMARK   74  A    between atoms: _195  and  _197
REMARK   75  A    between atoms: _197  and  _198
REMARK   76  A    between atoms: _197  and  _200
REMARK   77  A    between atoms: _200  and  _201
REMARK   78  A    between atoms: _204  and  _206
REMARK   79  A    between atoms: _206  and  _207
REMARK   80  A    between atoms: _206  and  _209
REMARK   81  A    between atoms: _209  and  _210
REMARK   82  A    between atoms: _214  and  ZN_365
REMARK   83  A    between atoms: _215  and  _217
REMARK   84  A    between atoms: _217  and  _218
REMARK   85  A    between atoms: _217  and  _220
REMARK   86  A    between atoms: _220  and  _221
REMARK   87  A    between atoms: _226  and  _227
REMARK   88  A    between atoms: _229  and  _231
REMARK   89  A    between atoms: _231  and  _232
REMARK   90  A    between atoms: _231  and  _234
REMARK   91  A    between atoms: _234  and  _235
REMARK   92  A    between atoms: _240  and  _242
REMARK   93  A    between atoms: _242  and  _243
REMARK   94  A    between atoms: _242  and  _245
REMARK   95  A    between atoms: _245  and  _246
REMARK   96  A    between atoms: _246  and  _247
REMARK   97  A    between atoms: _247  and  _248
REMARK   98  A    between atoms: _248  and  ZN_365
REMARK   99  A    between atoms: _250  and  _252
REMARK  100  A    between atoms: _252  and  _253
REMARK  101  A    between atoms: _252  and  _255
REMARK  102  A    between atoms: _255  and  _256
REMARK  103  A    between atoms: _258  and  _260
REMARK  104  A    between atoms: _260  and  _261
REMARK  105  A    between atoms: _260  and  _263
REMARK  106  A    between atoms: _263  and  _264
REMARK  107  A    between atoms: _267  and  _269
REMARK  108  A    between atoms: _269  and  _270
REMARK  109  A    between atoms: _269  and  _272
REMARK  110  A    between atoms: _272  and  _273
REMARK  111  A    between atoms: _276  and  _278
REMARK  112  A    between atoms: _278  and  _279
REMARK  113  A    between atoms: _281  and  _283
REMARK  114  A    between atoms: _283  and  _284
REMARK  115  A    between atoms: _283  and  _286
REMARK  116  A    between atoms: _289  and  _291
REMARK  117  A    between atoms: _291  and  _292
REMARK  118  A    between atoms: _291  and  _294
REMARK  119  A    between atoms: _294  and  _295
REMARK  120  A    between atoms: _300  and  _301
REMARK  121  A    between atoms: _303  and  _305
REMARK  122  A    between atoms: _305  and  _306
REMARK  123  A    between atoms: _305  and  _308
REMARK  124  A    between atoms: _308  and  _309
REMARK  125  A    between atoms: _312  and  _314
REMARK  126  A    between atoms: _314  and  _315
REMARK  127  A    between atoms: _314  and  _317
REMARK  128  A    between atoms: _317  and  _318
REMARK  129  A    between atoms: _318  and  _319
REMARK  130  A    between atoms: _319  and  _320
REMARK  131  A    between atoms: _329  and  _331
REMARK  132  A    between atoms: _331  and  _332
REMARK  133  A    between atoms: _331  and  _334
REMARK  134  A    between atoms: _334  and  _335
REMARK  135  A    between atoms: _338  and  _340
REMARK  136  A    between atoms: _340  and  _341
REMARK  137  A    between atoms: _340  and  _343
REMARK  138  A    between atoms: _346  and  _348
REMARK  139  A    between atoms: _348  and  _349
REMARK  140  A    between atoms: _348  and  _351
REMARK  141  A    between atoms: _351  and  _352
REMARK  142  A    between atoms: _357  and  _359
REMARK  143  A    between atoms: _359  and  _360
REMARK  144  A    between atoms: _359  and  _362
REMARK  145  A    between atoms: _362  and  _363
REMARK                            x       y       z     vdW  Elec       q    Type
REMARK                         _______ _______ _______ _____ _____    ______ ____
ROOT
ATOM      1  O   HOH     1      50.908  22.145 -10.986  0.00  0.00    +0.000 OA
ENDROOT
TORSDOF 0
