REMARK  Name = ../refined-set-2016/1hvh/1hvh_pocket.pdb
REMARK  200 active torsions:
REMARK  status: ('A' for Active; 'I' for Inactive)
REMARK    1  A    between atoms: _1  and  _3
REMARK    2  A    between atoms: _3  and  _4
REMARK    3  A    between atoms: _3  and  _6
REMARK    4  A    between atoms: _6  and  _7
REMARK    5  A    between atoms: _7  and  _8
REMARK    6  A    between atoms: _8  and  _9
REMARK    7  A    between atoms: _18  and  _20
REMARK    8  A    between atoms: _20  and  _21
REMARK    9  A    between atoms: _20  and  _23
REMARK   10  A    between atoms: _23  and  _24
REMARK   11  A    between atoms: _27  and  _29
REMARK   12  A    between atoms: _29  and  _30
REMARK   13  A    between atoms: _29  and  _32
REMARK   14  A    between atoms: _32  and  _33
REMARK   15  A    between atoms: _36  and  _38
REMARK   16  A    between atoms: _38  and  _39
REMARK   17  A    between atoms: _38  and  _41
REMARK   18  A    between atoms: _41  and  _42
REMARK   19  A    between atoms: _45  and  _47
REMARK   20  A    between atoms: _47  and  _48
REMARK   21  A    between atoms: _47  and  _50
REMARK   22  A    between atoms: _50  and  _51
REMARK   23  A    between atoms: _54  and  _56
REMARK   24  A    between atoms: _56  and  _57
REMARK   25  A    between atoms: _59  and  _61
REMARK   26  A    between atoms: _61  and  _62
REMARK   27  A    between atoms: _65  and  _67
REMARK   28  A    between atoms: _67  and  _68
REMARK   29  A    between atoms: _67  and  _70
REMARK   30  A    between atoms: _70  and  _71
REMARK   31  A    between atoms: _74  and  _76
REMARK   32  A    between atoms: _76  and  _77
REMARK   33  A    between atoms: _76  and  _79
REMARK   34  A    between atoms: _79  and  _80
REMARK   35  A    between atoms: _83  and  _85
REMARK   36  A    between atoms: _85  and  _86
REMARK   37  A    between atoms: _85  and  _88
REMARK   38  A    between atoms: _88  and  _89
REMARK   39  A    between atoms: _92  and  _94
REMARK   40  A    between atoms: _94  and  _95
REMARK   41  A    between atoms: _94  and  _97
REMARK   42  A    between atoms: _100  and  _102
REMARK   43  A    between atoms: _102  and  _103
REMARK   44  A    between atoms: _102  and  _105
REMARK   45  A    between atoms: _105  and  _106
REMARK   46  A    between atoms: _109  and  _111
REMARK   47  A    between atoms: _111  and  _112
REMARK   48  A    between atoms: _111  and  _114
REMARK   49  A    between atoms: _114  and  _115
REMARK   50  A    between atoms: _118  and  _120
REMARK   51  A    between atoms: _120  and  _121
REMARK   52  A    between atoms: _123  and  _125
REMARK   53  A    between atoms: _125  and  _126
REMARK   54  A    between atoms: _128  and  _130
REMARK   55  A    between atoms: _130  and  _131
REMARK   56  A    between atoms: _130  and  _133
REMARK   57  A    between atoms: _133  and  _134
REMARK   58  A    between atoms: _137  and  _139
REMARK   59  A    between atoms: _139  and  _140
REMARK   60  A    between atoms: _142  and  _144
REMARK   61  A    between atoms: _144  and  _145
REMARK   62  A    between atoms: _147  and  _149
REMARK   63  A    between atoms: _149  and  _150
REMARK   64  A    between atoms: _149  and  _152
REMARK   65  A    between atoms: _152  and  _153
REMARK   66  A    between atoms: _156  and  _158
REMARK   67  A    between atoms: _158  and  _159
REMARK   68  A    between atoms: _158  and  _161
REMARK   69  A    between atoms: _161  and  _162
REMARK   70  A    between atoms: _165  and  _167
REMARK   71  A    between atoms: _167  and  _168
REMARK   72  A    between atoms: _167  and  _170
REMARK   73  A    between atoms: _170  and  _171
REMARK   74  A    between atoms: _175  and  _176
REMARK   75  A    between atoms: _181  and  _183
REMARK   76  A    between atoms: _183  and  _184
REMARK   77  A    between atoms: _183  and  _186
REMARK   78  A    between atoms: _189  and  _191
REMARK   79  A    between atoms: _191  and  _192
REMARK   80  A    between atoms: _191  and  _194
REMARK   81  A    between atoms: _194  and  _195
REMARK   82  A    between atoms: _200  and  _202
REMARK   83  A    between atoms: _202  and  _203
REMARK   84  A    between atoms: _202  and  _205
REMARK   85  A    between atoms: _205  and  _206
REMARK   86  A    between atoms: _209  and  _211
REMARK   87  A    between atoms: _211  and  _212
REMARK   88  A    between atoms: _211  and  _214
REMARK   89  A    between atoms: _214  and  _215
REMARK   90  A    between atoms: _218  and  _220
REMARK   91  A    between atoms: _220  and  _221
REMARK   92  A    between atoms: _223  and  _225
REMARK   93  A    between atoms: _225  and  _226
REMARK   94  A    between atoms: _225  and  _228
REMARK   95  A    between atoms: _228  and  _229
REMARK   96  A    between atoms: _229  and  _230
REMARK   97  A    between atoms: _230  and  _231
REMARK   98  A    between atoms: _240  and  _242
REMARK   99  A    between atoms: _242  and  _243
REMARK  100  A    between atoms: _242  and  _245
REMARK  101  A    between atoms: _245  and  _246
REMARK  102  A    between atoms: _251  and  _253
REMARK  103  A    between atoms: _253  and  _254
REMARK  104  A    between atoms: _253  and  _256
REMARK  105  A    between atoms: _256  and  _257
REMARK  106  A    between atoms: _257  and  _258
REMARK  107  A    between atoms: _258  and  _259
REMARK  108  A    between atoms: _268  and  _270
REMARK  109  A    between atoms: _270  and  _271
REMARK  110  A    between atoms: _270  and  _273
REMARK  111  A    between atoms: _273  and  _274
REMARK  112  A    between atoms: _277  and  _279
REMARK  113  A    between atoms: _279  and  _280
REMARK  114  A    between atoms: _279  and  _282
REMARK  115  A    between atoms: _282  and  _283
REMARK  116  A    between atoms: _286  and  _288
REMARK  117  A    between atoms: _288  and  _289
REMARK  118  A    between atoms: _288  and  _291
REMARK  119  A    between atoms: _291  and  _292
REMARK  120  A    between atoms: _295  and  _297
REMARK  121  A    between atoms: _297  and  _298
REMARK  122  A    between atoms: _297  and  _300
REMARK  123  A    between atoms: _300  and  _301
REMARK  124  A    between atoms: _304  and  _306
REMARK  125  A    between atoms: _306  and  _307
REMARK  126  A    between atoms: _309  and  _311
REMARK  127  A    between atoms: _311  and  _312
REMARK  128  A    between atoms: _315  and  _317
REMARK  129  A    between atoms: _317  and  _318
REMARK  130  A    between atoms: _317  and  _320
REMARK  131  A    between atoms: _320  and  _321
REMARK  132  A    between atoms: _324  and  _326
REMARK  133  A    between atoms: _326  and  _327
REMARK  134  A    between atoms: _326  and  _329
REMARK  135  A    between atoms: _329  and  _330
REMARK  136  A    between atoms: _333  and  _335
REMARK  137  A    between atoms: _335  and  _336
REMARK  138  A    between atoms: _335  and  _338
REMARK  139  A    between atoms: _338  and  _339
REMARK  140  A    between atoms: _342  and  _344
REMARK  141  A    between atoms: _344  and  _345
REMARK  142  A    between atoms: _344  and  _347
REMARK  143  A    between atoms: _350  and  _352
REMARK  144  A    between atoms: _352  and  _353
REMARK  145  A    between atoms: _352  and  _355
REMARK  146  A    between atoms: _355  and  _356
REMARK  147  A    between atoms: _356  and  _357
REMARK  148  A    between atoms: _359  and  _361
REMARK  149  A    between atoms: _361  and  _362
REMARK  150  A    between atoms: _361  and  _364
REMARK  151  A    between atoms: _364  and  _365
REMARK  152  A    between atoms: _368  and  _370
REMARK  153  A    between atoms: _370  and  _371
REMARK  154  A    between atoms: _373  and  _375
REMARK  155  A    between atoms: _375  and  _376
REMARK  156  A    between atoms: _378  and  _380
REMARK  157  A    between atoms: _380  and  _381
REMARK  158  A    between atoms: _380  and  _383
REMARK  159  A    between atoms: _383  and  _384
REMARK  160  A    between atoms: _387  and  _389
REMARK  161  A    between atoms: _389  and  _390
REMARK  162  A    between atoms: _392  and  _394
REMARK  163  A    between atoms: _394  and  _395
REMARK  164  A    between atoms: _397  and  _399
REMARK  165  A    between atoms: _399  and  _400
REMARK  166  A    between atoms: _399  and  _402
REMARK  167  A    between atoms: _402  and  _403
REMARK  168  A    between atoms: _409  and  _411
REMARK  169  A    between atoms: _411  and  _412
REMARK  170  A    between atoms: _411  and  _414
REMARK  171  A    between atoms: _414  and  _415
REMARK  172  A    between atoms: _418  and  _420
REMARK  173  A    between atoms: _420  and  _421
REMARK  174  A    between atoms: _420  and  _423
REMARK  175  A    between atoms: _423  and  _424
REMARK  176  A    between atoms: _428  and  _429
REMARK  177  A    between atoms: _434  and  _436
REMARK  178  A    between atoms: _436  and  _437
REMARK  179  A    between atoms: _436  and  _439
REMARK  180  A    between atoms: _439  and  _440
REMARK  181  A    between atoms: _444  and  _445
REMARK  182  A    between atoms: _450  and  _452
REMARK  183  A    between atoms: _452  and  _453
REMARK  184  A    between atoms: _452  and  _455
REMARK  185  A    between atoms: _458  and  _460
REMARK  186  A    between atoms: _460  and  _461
REMARK  187  A    between atoms: _460  and  _463
REMARK  188  A    between atoms: _463  and  _464
REMARK  189  A    between atoms: _469  and  _471
REMARK  190  A    between atoms: _471  and  _472
REMARK  191  A    between atoms: _471  and  _474
REMARK  192  A    between atoms: _474  and  _475
REMARK  193  A    between atoms: _478  and  _480
REMARK  194  A    between atoms: _480  and  _481
REMARK  195  A    between atoms: _483  and  _485
REMARK  196  A    between atoms: _485  and  _486
REMARK  197  A    between atoms: _485  and  _488
REMARK  198  A    between atoms: _488  and  _489
REMARK  199  A    between atoms: _489  and  _490
REMARK  200  A    between atoms: _490  and  _491
REMARK                            x       y       z     vdW  Elec       q    Type
REMARK                         _______ _______ _______ _____ _____    ______ ____
ROOT
ATOM      1  NE  ARG A   1      -4.752  24.077  23.204  0.00  0.00    -0.265 N 
ATOM      2  HE  ARG A   1      -5.747  24.052  23.506  0.00  0.00    +0.259 HD
ATOM      3  CZ  ARG A   1      -4.017  22.978  23.362  0.00  0.00    +0.342 C 
ATOM      4  NH2 ARG A   1      -4.585  21.898  23.913  0.00  0.00    -0.292 N 
ATOM      5 HH21 ARG A   1      -5.582  21.928  24.208  0.00  0.00    +0.255 HD
ATOM      6 HH22 ARG A   1      -4.029  21.029  24.046  0.00  0.00    +0.255 HD
ATOM      7  NH1 ARG A   1      -2.732  22.926  22.986  0.00  0.00    -0.292 N 
ATOM      8 HH11 ARG A   1      -2.185  22.052  23.123  0.00  0.00    +0.255 HD
ATOM      9 HH12 ARG A   1      -2.282  23.759  22.557  0.00  0.00    +0.255 HD
ENDROOT
BRANCH   1  10
ATOM     10  CD  ARG A   1      -4.235  25.314  22.629  0.00  0.00    +0.174 C 
BRANCH  10  11
ATOM     11  CG  ARG A   1      -5.341  26.274  22.217  0.00  0.00    +0.045 C 
BRANCH  11  12
ATOM     12  CB  ARG A   1      -5.690  27.322  23.261  0.00  0.00    +0.029 C 
BRANCH  12  13
ATOM     13  CA  ARG A   1      -6.854  28.234  22.841  0.00  0.00    +0.133 C 
BRANCH  13  14
ATOM     14  N   ARG A   1      -6.620  28.935  21.562  0.00  0.00    -0.239 NA
ATOM     15  H   ARG A   1      -5.762  28.723  21.014  0.00  0.00    +0.142 HD
ENDBRANCH  13  14
BRANCH  13  16
ATOM     16  C   ARG A   1      -6.970  29.270  23.940  0.00  0.00    +0.224 C 
ATOM     17  O   ARG A   1      -6.173  30.197  23.931  0.00  0.00    -0.287 OA
ENDBRANCH  13  16
ENDBRANCH  12  13
ENDBRANCH  11  12
ENDBRANCH  10  11
ENDBRANCH   1  10
TORSDOF 6
REMARK  Name = ../refined-set-2016/1hvh/1hvh_pocket.pdb
REMARK  200 active torsions:
REMARK  status: ('A' for Active; 'I' for Inactive)
REMARK    1  A    between atoms: _1  and  _3
REMARK    2  A    between atoms: _3  and  _4
REMARK    3  A    between atoms: _3  and  _6
REMARK    4  A    between atoms: _6  and  _7
REMARK    5  A    between atoms: _7  and  _8
REMARK    6  A    between atoms: _8  and  _9
REMARK    7  A    between atoms: _18  and  _20
REMARK    8  A    between atoms: _20  and  _21
REMARK    9  A    between atoms: _20  and  _23
REMARK   10  A    between atoms: _23  and  _24
REMARK   11  A    between atoms: _27  and  _29
REMARK   12  A    between atoms: _29  and  _30
REMARK   13  A    between atoms: _29  and  _32
REMARK   14  A    between atoms: _32  and  _33
REMARK   15  A    between atoms: _36  and  _38
REMARK   16  A    between atoms: _38  and  _39
REMARK   17  A    between atoms: _38  and  _41
REMARK   18  A    between atoms: _41  and  _42
REMARK   19  A    between atoms: _45  and  _47
REMARK   20  A    between atoms: _47  and  _48
REMARK   21  A    between atoms: _47  and  _50
REMARK   22  A    between atoms: _50  and  _51
REMARK   23  A    between atoms: _54  and  _56
REMARK   24  A    between atoms: _56  and  _57
REMARK   25  A    between atoms: _59  and  _61
REMARK   26  A    between atoms: _61  and  _62
REMARK   27  A    between atoms: _65  and  _67
REMARK   28  A    between atoms: _67  and  _68
REMARK   29  A    between atoms: _67  and  _70
REMARK   30  A    between atoms: _70  and  _71
REMARK   31  A    between atoms: _74  and  _76
REMARK   32  A    between atoms: _76  and  _77
REMARK   33  A    between atoms: _76  and  _79
REMARK   34  A    between atoms: _79  and  _80
REMARK   35  A    between atoms: _83  and  _85
REMARK   36  A    between atoms: _85  and  _86
REMARK   37  A    between atoms: _85  and  _88
REMARK   38  A    between atoms: _88  and  _89
REMARK   39  A    between atoms: _92  and  _94
REMARK   40  A    between atoms: _94  and  _95
REMARK   41  A    between atoms: _94  and  _97
REMARK   42  A    between atoms: _100  and  _102
REMARK   43  A    between atoms: _102  and  _103
REMARK   44  A    between atoms: _102  and  _105
REMARK   45  A    between atoms: _105  and  _106
REMARK   46  A    between atoms: _109  and  _111
REMARK   47  A    between atoms: _111  and  _112
REMARK   48  A    between atoms: _111  and  _114
REMARK   49  A    between atoms: _114  and  _115
REMARK   50  A    between atoms: _118  and  _120
REMARK   51  A    between atoms: _120  and  _121
REMARK   52  A    between atoms: _123  and  _125
REMARK   53  A    between atoms: _125  and  _126
REMARK   54  A    between atoms: _128  and  _130
REMARK   55  A    between atoms: _130  and  _131
REMARK   56  A    between atoms: _130  and  _133
REMARK   57  A    between atoms: _133  and  _134
REMARK   58  A    between atoms: _137  and  _139
REMARK   59  A    between atoms: _139  and  _140
REMARK   60  A    between atoms: _142  and  _144
REMARK   61  A    between atoms: _144  and  _145
REMARK   62  A    between atoms: _147  and  _149
REMARK   63  A    between atoms: _149  and  _150
REMARK   64  A    between atoms: _149  and  _152
REMARK   65  A    between atoms: _152  and  _153
REMARK   66  A    between atoms: _156  and  _158
REMARK   67  A    between atoms: _158  and  _159
REMARK   68  A    between atoms: _158  and  _161
REMARK   69  A    between atoms: _161  and  _162
REMARK   70  A    between atoms: _165  and  _167
REMARK   71  A    between atoms: _167  and  _168
REMARK   72  A    between atoms: _167  and  _170
REMARK   73  A    between atoms: _170  and  _171
REMARK   74  A    between atoms: _175  and  _176
REMARK   75  A    between atoms: _181  and  _183
REMARK   76  A    between atoms: _183  and  _184
REMARK   77  A    between atoms: _183  and  _186
REMARK   78  A    between atoms: _189  and  _191
REMARK   79  A    between atoms: _191  and  _192
REMARK   80  A    between atoms: _191  and  _194
REMARK   81  A    between atoms: _194  and  _195
REMARK   82  A    between atoms: _200  and  _202
REMARK   83  A    between atoms: _202  and  _203
REMARK   84  A    between atoms: _202  and  _205
REMARK   85  A    between atoms: _205  and  _206
REMARK   86  A    between atoms: _209  and  _211
REMARK   87  A    between atoms: _211  and  _212
REMARK   88  A    between atoms: _211  and  _214
REMARK   89  A    between atoms: _214  and  _215
REMARK   90  A    between atoms: _218  and  _220
REMARK   91  A    between atoms: _220  and  _221
REMARK   92  A    between atoms: _223  and  _225
REMARK   93  A    between atoms: _225  and  _226
REMARK   94  A    between atoms: _225  and  _228
REMARK   95  A    between atoms: _228  and  _229
REMARK   96  A    between atoms: _229  and  _230
REMARK   97  A    between atoms: _230  and  _231
REMARK   98  A    between atoms: _240  and  _242
REMARK   99  A    between atoms: _242  and  _243
REMARK  100  A    between atoms: _242  and  _245
REMARK  101  A    between atoms: _245  and  _246
REMARK  102  A    between atoms: _251  and  _253
REMARK  103  A    between atoms: _253  and  _254
REMARK  104  A    between atoms: _253  and  _256
REMARK  105  A    between atoms: _256  and  _257
REMARK  106  A    between atoms: _257  and  _258
REMARK  107  A    between atoms: _258  and  _259
REMARK  108  A    between atoms: _268  and  _270
REMARK  109  A    between atoms: _270  and  _271
REMARK  110  A    between atoms: _270  and  _273
REMARK  111  A    between atoms: _273  and  _274
REMARK  112  A    between atoms: _277  and  _279
REMARK  113  A    between atoms: _279  and  _280
REMARK  114  A    between atoms: _279  and  _282
REMARK  115  A    between atoms: _282  and  _283
REMARK  116  A    between atoms: _286  and  _288
REMARK  117  A    between atoms: _288  and  _289
REMARK  118  A    between atoms: _288  and  _291
REMARK  119  A    between atoms: _291  and  _292
REMARK  120  A    between atoms: _295  and  _297
REMARK  121  A    between atoms: _297  and  _298
REMARK  122  A    between atoms: _297  and  _300
REMARK  123  A    between atoms: _300  and  _301
REMARK  124  A    between atoms: _304  and  _306
REMARK  125  A    between atoms: _306  and  _307
REMARK  126  A    between atoms: _309  and  _311
REMARK  127  A    between atoms: _311  and  _312
REMARK  128  A    between atoms: _315  and  _317
REMARK  129  A    between atoms: _317  and  _318
REMARK  130  A    between atoms: _317  and  _320
REMARK  131  A    between atoms: _320  and  _321
REMARK  132  A    between atoms: _324  and  _326
REMARK  133  A    between atoms: _326  and  _327
REMARK  134  A    between atoms: _326  and  _329
REMARK  135  A    between atoms: _329  and  _330
REMARK  136  A    between atoms: _333  and  _335
REMARK  137  A    between atoms: _335  and  _336
REMARK  138  A    between atoms: _335  and  _338
REMARK  139  A    between atoms: _338  and  _339
REMARK  140  A    between atoms: _342  and  _344
REMARK  141  A    between atoms: _344  and  _345
REMARK  142  A    between atoms: _344  and  _347
REMARK  143  A    between atoms: _350  and  _352
REMARK  144  A    between atoms: _352  and  _353
REMARK  145  A    between atoms: _352  and  _355
REMARK  146  A    between atoms: _355  and  _356
REMARK  147  A    between atoms: _356  and  _357
REMARK  148  A    between atoms: _359  and  _361
REMARK  149  A    between atoms: _361  and  _362
REMARK  150  A    between atoms: _361  and  _364
REMARK  151  A    between atoms: _364  and  _365
REMARK  152  A    between atoms: _368  and  _370
REMARK  153  A    between atoms: _370  and  _371
REMARK  154  A    between atoms: _373  and  _375
REMARK  155  A    between atoms: _375  and  _376
REMARK  156  A    between atoms: _378  and  _380
REMARK  157  A    between atoms: _380  and  _381
REMARK  158  A    between atoms: _380  and  _383
REMARK  159  A    between atoms: _383  and  _384
REMARK  160  A    between atoms: _387  and  _389
REMARK  161  A    between atoms: _389  and  _390
REMARK  162  A    between atoms: _392  and  _394
REMARK  163  A    between atoms: _394  and  _395
REMARK  164  A    between atoms: _397  and  _399
REMARK  165  A    between atoms: _399  and  _400
REMARK  166  A    between atoms: _399  and  _402
REMARK  167  A    between atoms: _402  and  _403
REMARK  168  A    between atoms: _409  and  _411
REMARK  169  A    between atoms: _411  and  _412
REMARK  170  A    between atoms: _411  and  _414
REMARK  171  A    between atoms: _414  and  _415
REMARK  172  A    between atoms: _418  and  _420
REMARK  173  A    between atoms: _420  and  _421
REMARK  174  A    between atoms: _420  and  _423
REMARK  175  A    between atoms: _423  and  _424
REMARK  176  A    between atoms: _428  and  _429
REMARK  177  A    between atoms: _434  and  _436
REMARK  178  A    between atoms: _436  and  _437
REMARK  179  A    between atoms: _436  and  _439
REMARK  180  A    between atoms: _439  and  _440
REMARK  181  A    between atoms: _444  and  _445
REMARK  182  A    between atoms: _450  and  _452
REMARK  183  A    between atoms: _452  and  _453
REMARK  184  A    between atoms: _452  and  _455
REMARK  185  A    between atoms: _458  and  _460
REMARK  186  A    between atoms: _460  and  _461
REMARK  187  A    between atoms: _460  and  _463
REMARK  188  A    between atoms: _463  and  _464
REMARK  189  A    between atoms: _469  and  _471
REMARK  190  A    between atoms: _471  and  _472
REMARK  191  A    between atoms: _471  and  _474
REMARK  192  A    between atoms: _474  and  _475
REMARK  193  A    between atoms: _478  and  _480
REMARK  194  A    between atoms: _480  and  _481
REMARK  195  A    between atoms: _483  and  _485
REMARK  196  A    between atoms: _485  and  _486
REMARK  197  A    between atoms: _485  and  _488
REMARK  198  A    between atoms: _488  and  _489
REMARK  199  A    between atoms: _489  and  _490
REMARK  200  A    between atoms: _490  and  _491
REMARK                            x       y       z     vdW  Elec       q    Type
REMARK                         _______ _______ _______ _____ _____    ______ ____
ROOT
ATOM      1  C   ALA A   6     -13.430  19.682  34.149  0.00  0.00    +0.241 C 
ATOM      2  N   ASP A   7     -13.599  18.659  34.954  0.00  0.00    -0.297 N 
ATOM      3  H   ASP A   7     -13.243  17.727  34.662  0.00  0.00    +0.150 HD
ATOM      4  O   ALA A   6     -13.809  20.790  34.421  0.00  0.00    -0.273 OA
ENDROOT
BRANCH   1   5
ATOM      5  CA  ALA A   6     -12.734  19.391  32.863  0.00  0.00    +0.149 C 
ATOM      6  CB  ALA A   6     -11.282  19.845  32.906  0.00  0.00    +0.031 C 
BRANCH   5   8
ATOM      7  C   GLY A   5     -14.278  19.317  30.974  0.00  0.00    +0.243 C 
ATOM      8  N   ALA A   6     -13.447  20.012  31.766  0.00  0.00    -0.297 N 
ATOM      9  H   ALA A   6     -13.311  21.027  31.587  0.00  0.00    +0.150 HD
ATOM     10  O   GLY A   5     -14.486  18.124  31.172  0.00  0.00    -0.273 OA
BRANCH   7  11
ATOM     11  CA  GLY A   5     -14.962  20.061  29.817  0.00  0.00    +0.176 C 
BRANCH  11  14
ATOM     12  C   THR A   4     -15.474  22.319  30.594  0.00  0.00    +0.243 C 
ATOM     13  O   THR A   4     -16.427  21.960  31.261  0.00  0.00    -0.273 OA
ATOM     14  N   GLY A   5     -14.747  21.498  29.852  0.00  0.00    -0.295 N 
ATOM     15  H   GLY A   5     -13.987  21.900  29.267  0.00  0.00    +0.150 HD
BRANCH  12  16
ATOM     16  CA  THR A   4     -15.111  23.778  30.544  0.00  0.00    +0.176 C 
BRANCH  16  19
ATOM     17  C   ASP A   3     -12.661  23.719  30.783  0.00  0.00    +0.241 C 
ATOM     18  O   ASP A   3     -12.708  23.219  31.872  0.00  0.00    -0.273 OA
ATOM     19  N   THR A   4     -13.748  24.016  30.078  0.00  0.00    -0.295 N 
ATOM     20  H   THR A   4     -13.620  24.443  29.139  0.00  0.00    +0.150 HD
BRANCH  17  21
ATOM     21  CA  ASP A   3     -11.337  24.002  30.120  0.00  0.00    +0.160 C 
BRANCH  21  23
ATOM     22  C   LEU A   2     -10.401  26.170  29.790  0.00  0.00    +0.241 C 
ATOM     23  N   ASP A   3     -10.694  25.172  30.587  0.00  0.00    -0.297 N 
ATOM     24  H   ASP A   3     -10.446  25.242  31.595  0.00  0.00    +0.150 HD
ATOM     25  O   LEU A   2     -10.679  26.181  28.588  0.00  0.00    -0.273 OA
BRANCH  22  26
ATOM     26  CA  LEU A   2      -9.615  27.258  30.495  0.00  0.00    +0.149 C 
BRANCH  26  29
ATOM     27  C   LEU A   1      -7.372  26.389  30.474  0.00  0.00    +0.238 C 
ATOM     28  O   LEU A   1      -7.574  25.690  31.480  0.00  0.00    -0.274 OA
ATOM     29  N   LEU A   2      -8.286  27.203  29.941  0.00  0.00    -0.297 N 
ATOM     30  H   LEU A   2      -8.039  27.798  29.125  0.00  0.00    +0.150 HD
BRANCH  27  31
ATOM     31  CA  LEU A   1      -6.035  26.324  29.766  0.00  0.00    +0.145 C 
BRANCH  31  32
ATOM     32  N   LEU A   1      -4.930  26.399  30.667  0.00  0.00    -0.238 NA
ATOM     33  H   LEU A   1      -4.596  25.528  31.127  0.00  0.00    +0.142 HD
ENDBRANCH  31  32
BRANCH  31  34
ATOM     34  CB  LEU A   1      -5.936  24.904  29.190  0.00  0.00    +0.026 C 
BRANCH  34  35
ATOM     35  CG  LEU A   1      -5.863  24.775  27.680  0.00  0.00    +0.002 C 
ATOM     36  CD2 LEU A   1      -5.797  23.289  27.389  0.00  0.00    +0.000 C 
ATOM     37  CD1 LEU A   1      -7.116  25.329  27.043  0.00  0.00    +0.000 C 
ENDBRANCH  34  35
ENDBRANCH  31  34
ENDBRANCH  27  31
ENDBRANCH  26  29
BRANCH  26  38
ATOM     38  CB  LEU A   2     -10.265  28.625  30.454  0.00  0.00    +0.029 C 
BRANCH  38  39
ATOM     39  CG  LEU A   2      -9.228  29.654  30.820  0.00  0.00    +0.002 C 
ATOM     40  CD2 LEU A   2      -8.920  29.518  32.306  0.00  0.00    +0.000 C 
ATOM     41  CD1 LEU A   2      -9.811  31.017  30.496  0.00  0.00    +0.000 C 
ENDBRANCH  38  39
ENDBRANCH  26  38
ENDBRANCH  22  26
ENDBRANCH  21  23
BRANCH  21  42
ATOM     42  CB  ASP A   3     -10.309  22.962  30.452  0.00  0.00    +0.143 C 
BRANCH  42  43
ATOM     43  CG  ASP A   3     -10.502  21.697  29.745  0.00  0.00    +0.367 C 
ATOM     44  OD2 ASP A   3      -9.473  20.954  29.860  0.00  0.00    -0.246 OA
ATOM     45  OD1 ASP A   3     -11.544  21.351  29.265  0.00  0.00    -0.246 OA
ENDBRANCH  42  43
ENDBRANCH  21  42
ENDBRANCH  17  21
ENDBRANCH  16  19
BRANCH  16  46
ATOM     46  CB  THR A   4     -16.060  24.402  29.549  0.00  0.00    +0.137 C 
ATOM     47  CG2 THR A   4     -15.811  25.906  29.480  0.00  0.00    +0.034 C 
BRANCH  46  48
ATOM     48  OG1 THR A   4     -15.808  23.800  28.301  0.00  0.00    -0.382 OA
ATOM     49  HG1 THR A   4     -15.965  22.825  28.369  0.00  0.00    +0.210 HD
ENDBRANCH  46  48
ENDBRANCH  16  46
ENDBRANCH  12  16
ENDBRANCH  11  14
ENDBRANCH   7  11
ENDBRANCH   5   8
ENDBRANCH   1   5
BRANCH   2  50
ATOM     50  CA  ASP A   7     -14.270  18.784  36.246  0.00  0.00    +0.160 C 
BRANCH  50  51
ATOM     51  C   ASP A   7     -13.364  19.310  37.311  0.00  0.00    +0.241 C 
ATOM     52  O   ASP A   7     -13.770  20.101  38.147  0.00  0.00    -0.273 OA
ATOM     53  N   ASP A   8     -12.118  18.878  37.212  0.00  0.00    -0.297 N 
ATOM     54  H   ASP A   8     -11.875  18.220  36.444  0.00  0.00    +0.150 HD
BRANCH  53  55
ATOM     55  CA  ASP A   8     -11.095  19.283  38.122  0.00  0.00    +0.160 C 
BRANCH  55  56
ATOM     56  C   ASP A   8     -10.035  20.007  37.384  0.00  0.00    +0.241 C 
ATOM     57  N   THR A   9      -9.113  20.576  38.133  0.00  0.00    -0.295 N 
ATOM     58  H   THR A   9      -9.196  20.492  39.166  0.00  0.00    +0.150 HD
ATOM     59  O   ASP A   8     -10.038  20.000  36.179  0.00  0.00    -0.273 OA
BRANCH  57  60
ATOM     60  CA  THR A   9      -7.996  21.308  37.596  0.00  0.00    +0.176 C 
BRANCH  60  61
ATOM     61  C   THR A   9      -6.815  20.402  37.664  0.00  0.00    +0.243 C 
ATOM     62  O   THR A   9      -6.638  19.734  38.682  0.00  0.00    -0.273 OA
ATOM     63  N   VAL A  10      -6.006  20.372  36.633  0.00  0.00    -0.297 N 
ATOM     64  H   VAL A  10      -6.178  20.963  35.795  0.00  0.00    +0.150 HD
BRANCH  63  65
ATOM     65  CA  VAL A  10      -4.861  19.483  36.704  0.00  0.00    +0.149 C 
BRANCH  65  66
ATOM     66  C   VAL A  10      -3.615  20.112  36.163  0.00  0.00    +0.241 C 
ATOM     67  N   LEU A  11      -2.623  20.123  36.990  0.00  0.00    -0.298 N 
ATOM     68  H   LEU A  11      -2.707  19.653  37.914  0.00  0.00    +0.150 HD
ATOM     69  O   VAL A  10      -3.551  20.627  35.069  0.00  0.00    -0.273 OA
BRANCH  67  70
ATOM     70  CA  LEU A  11      -1.429  20.774  36.633  0.00  0.00    +0.137 C 
BRANCH  70  71
ATOM     71  C   LEU A  11      -0.329  19.831  36.390  0.00  0.00    +0.227 C 
ATOM     72  O   LEU A  11      -0.213  18.805  37.028  0.00  0.00    -0.286 OA
ENDBRANCH  70  71
BRANCH  70  73
ATOM     73  CB  LEU A  11      -0.978  21.537  37.877  0.00  0.00    +0.028 C 
BRANCH  73  74
ATOM     74  CG  LEU A  11      -1.636  22.885  38.116  0.00  0.00    +0.002 C 
ATOM     75  CD2 LEU A  11      -1.586  23.162  39.612  0.00  0.00    +0.000 C 
ATOM     76  CD1 LEU A  11      -3.073  22.840  37.657  0.00  0.00    +0.000 C 
ENDBRANCH  73  74
ENDBRANCH  70  73
ENDBRANCH  67  70
ENDBRANCH  65  66
BRANCH  65  77
ATOM     77  CB  VAL A  10      -5.072  18.063  36.252  0.00  0.00    +0.027 C 
ATOM     78  CG2 VAL A  10      -3.862  17.634  35.462  0.00  0.00    +0.002 C 
ATOM     79  CG1 VAL A  10      -6.298  17.938  35.382  0.00  0.00    +0.002 C 
ENDBRANCH  65  77
ENDBRANCH  63  65
ENDBRANCH  60  61
BRANCH  60  80
ATOM     80  CB  THR A   9      -7.742  22.495  38.522  0.00  0.00    +0.137 C 
ATOM     81  CG2 THR A   9      -6.430  23.213  38.196  0.00  0.00    +0.034 C 
BRANCH  80  82
ATOM     82  OG1 THR A   9      -8.877  23.315  38.422  0.00  0.00    -0.382 OA
ATOM     83  HG1 THR A   9      -9.677  22.805  38.705  0.00  0.00    +0.210 HD
ENDBRANCH  80  82
ENDBRANCH  60  80
ENDBRANCH  57  60
ENDBRANCH  55  56
BRANCH  55  84
ATOM     84  CB  ASP A   8     -10.410  18.033  38.624  0.00  0.00    +0.143 C 
BRANCH  84  85
ATOM     85  CG  ASP A   8     -11.412  17.216  39.310  0.00  0.00    +0.367 C 
ATOM     86  OD2 ASP A   8     -12.096  17.719  40.156  0.00  0.00    -0.246 OA
ATOM     87  OD1 ASP A   8     -11.527  15.996  38.834  0.00  0.00    -0.246 OA
ENDBRANCH  84  85
ENDBRANCH  55  84
ENDBRANCH  53  55
ENDBRANCH  50  51
BRANCH  50  88
ATOM     88  CB  ASP A   7     -14.918  17.462  36.648  0.00  0.00    +0.143 C 
BRANCH  88  89
ATOM     89  CG  ASP A   7     -15.667  16.950  35.460  0.00  0.00    +0.367 C 
ATOM     90  OD2 ASP A   7     -16.840  17.210  35.265  0.00  0.00    -0.246 OA
ATOM     91  OD1 ASP A   7     -14.880  16.310  34.602  0.00  0.00    -0.246 OA
ENDBRANCH  88  89
ENDBRANCH  50  88
ENDBRANCH   2  50
TORSDOF 39
REMARK  Name = ../refined-set-2016/1hvh/1hvh_pocket.pdb
REMARK  200 active torsions:
REMARK  status: ('A' for Active; 'I' for Inactive)
REMARK    1  A    between atoms: _1  and  _3
REMARK    2  A    between atoms: _3  and  _4
REMARK    3  A    between atoms: _3  and  _6
REMARK    4  A    between atoms: _6  and  _7
REMARK    5  A    between atoms: _7  and  _8
REMARK    6  A    between atoms: _8  and  _9
REMARK    7  A    between atoms: _18  and  _20
REMARK    8  A    between atoms: _20  and  _21
REMARK    9  A    between atoms: _20  and  _23
REMARK   10  A    between atoms: _23  and  _24
REMARK   11  A    between atoms: _27  and  _29
REMARK   12  A    between atoms: _29  and  _30
REMARK   13  A    between atoms: _29  and  _32
REMARK   14  A    between atoms: _32  and  _33
REMARK   15  A    between atoms: _36  and  _38
REMARK   16  A    between atoms: _38  and  _39
REMARK   17  A    between atoms: _38  and  _41
REMARK   18  A    between atoms: _41  and  _42
REMARK   19  A    between atoms: _45  and  _47
REMARK   20  A    between atoms: _47  and  _48
REMARK   21  A    between atoms: _47  and  _50
REMARK   22  A    between atoms: _50  and  _51
REMARK   23  A    between atoms: _54  and  _56
REMARK   24  A    between atoms: _56  and  _57
REMARK   25  A    between atoms: _59  and  _61
REMARK   26  A    between atoms: _61  and  _62
REMARK   27  A    between atoms: _65  and  _67
REMARK   28  A    between atoms: _67  and  _68
REMARK   29  A    between atoms: _67  and  _70
REMARK   30  A    between atoms: _70  and  _71
REMARK   31  A    between atoms: _74  and  _76
REMARK   32  A    between atoms: _76  and  _77
REMARK   33  A    between atoms: _76  and  _79
REMARK   34  A    between atoms: _79  and  _80
REMARK   35  A    between atoms: _83  and  _85
REMARK   36  A    between atoms: _85  and  _86
REMARK   37  A    between atoms: _85  and  _88
REMARK   38  A    between atoms: _88  and  _89
REMARK   39  A    between atoms: _92  and  _94
REMARK   40  A    between atoms: _94  and  _95
REMARK   41  A    between atoms: _94  and  _97
REMARK   42  A    between atoms: _100  and  _102
REMARK   43  A    between atoms: _102  and  _103
REMARK   44  A    between atoms: _102  and  _105
REMARK   45  A    between atoms: _105  and  _106
REMARK   46  A    between atoms: _109  and  _111
REMARK   47  A    between atoms: _111  and  _112
REMARK   48  A    between atoms: _111  and  _114
REMARK   49  A    between atoms: _114  and  _115
REMARK   50  A    between atoms: _118  and  _120
REMARK   51  A    between atoms: _120  and  _121
REMARK   52  A    between atoms: _123  and  _125
REMARK   53  A    between atoms: _125  and  _126
REMARK   54  A    between atoms: _128  and  _130
REMARK   55  A    between atoms: _130  and  _131
REMARK   56  A    between atoms: _130  and  _133
REMARK   57  A    between atoms: _133  and  _134
REMARK   58  A    between atoms: _137  and  _139
REMARK   59  A    between atoms: _139  and  _140
REMARK   60  A    between atoms: _142  and  _144
REMARK   61  A    between atoms: _144  and  _145
REMARK   62  A    between atoms: _147  and  _149
REMARK   63  A    between atoms: _149  and  _150
REMARK   64  A    between atoms: _149  and  _152
REMARK   65  A    between atoms: _152  and  _153
REMARK   66  A    between atoms: _156  and  _158
REMARK   67  A    between atoms: _158  and  _159
REMARK   68  A    between atoms: _158  and  _161
REMARK   69  A    between atoms: _161  and  _162
REMARK   70  A    between atoms: _165  and  _167
REMARK   71  A    between atoms: _167  and  _168
REMARK   72  A    between atoms: _167  and  _170
REMARK   73  A    between atoms: _170  and  _171
REMARK   74  A    between atoms: _175  and  _176
REMARK   75  A    between atoms: _181  and  _183
REMARK   76  A    between atoms: _183  and  _184
REMARK   77  A    between atoms: _183  and  _186
REMARK   78  A    between atoms: _189  and  _191
REMARK   79  A    between atoms: _191  and  _192
REMARK   80  A    between atoms: _191  and  _194
REMARK   81  A    between atoms: _194  and  _195
REMARK   82  A    between atoms: _200  and  _202
REMARK   83  A    between atoms: _202  and  _203
REMARK   84  A    between atoms: _202  and  _205
REMARK   85  A    between atoms: _205  and  _206
REMARK   86  A    between atoms: _209  and  _211
REMARK   87  A    between atoms: _211  and  _212
REMARK   88  A    between atoms: _211  and  _214
REMARK   89  A    between atoms: _214  and  _215
REMARK   90  A    between atoms: _218  and  _220
REMARK   91  A    between atoms: _220  and  _221
REMARK   92  A    between atoms: _223  and  _225
REMARK   93  A    between atoms: _225  and  _226
REMARK   94  A    between atoms: _225  and  _228
REMARK   95  A    between atoms: _228  and  _229
REMARK   96  A    between atoms: _229  and  _230
REMARK   97  A    between atoms: _230  and  _231
REMARK   98  A    between atoms: _240  and  _242
REMARK   99  A    between atoms: _242  and  _243
REMARK  100  A    between atoms: _242  and  _245
REMARK  101  A    between atoms: _245  and  _246
REMARK  102  A    between atoms: _251  and  _253
REMARK  103  A    between atoms: _253  and  _254
REMARK  104  A    between atoms: _253  and  _256
REMARK  105  A    between atoms: _256  and  _257
REMARK  106  A    between atoms: _257  and  _258
REMARK  107  A    between atoms: _258  and  _259
REMARK  108  A    between atoms: _268  and  _270
REMARK  109  A    between atoms: _270  and  _271
REMARK  110  A    between atoms: _270  and  _273
REMARK  111  A    between atoms: _273  and  _274
REMARK  112  A    between atoms: _277  and  _279
REMARK  113  A    between atoms: _279  and  _280
REMARK  114  A    between atoms: _279  and  _282
REMARK  115  A    between atoms: _282  and  _283
REMARK  116  A    between atoms: _286  and  _288
REMARK  117  A    between atoms: _288  and  _289
REMARK  118  A    between atoms: _288  and  _291
REMARK  119  A    between atoms: _291  and  _292
REMARK  120  A    between atoms: _295  and  _297
REMARK  121  A    between atoms: _297  and  _298
REMARK  122  A    between atoms: _297  and  _300
REMARK  123  A    between atoms: _300  and  _301
REMARK  124  A    between atoms: _304  and  _306
REMARK  125  A    between atoms: _306  and  _307
REMARK  126  A    between atoms: _309  and  _311
REMARK  127  A    between atoms: _311  and  _312
REMARK  128  A    between atoms: _315  and  _317
REMARK  129  A    between atoms: _317  and  _318
REMARK  130  A    between atoms: _317  and  _320
REMARK  131  A    between atoms: _320  and  _321
REMARK  132  A    between atoms: _324  and  _326
REMARK  133  A    between atoms: _326  and  _327
REMARK  134  A    between atoms: _326  and  _329
REMARK  135  A    between atoms: _329  and  _330
REMARK  136  A    between atoms: _333  and  _335
REMARK  137  A    between atoms: _335  and  _336
REMARK  138  A    between atoms: _335  and  _338
REMARK  139  A    between atoms: _338  and  _339
REMARK  140  A    between atoms: _342  and  _344
REMARK  141  A    between atoms: _344  and  _345
REMARK  142  A    between atoms: _344  and  _347
REMARK  143  A    between atoms: _350  and  _352
REMARK  144  A    between atoms: _352  and  _353
REMARK  145  A    between atoms: _352  and  _355
REMARK  146  A    between atoms: _355  and  _356
REMARK  147  A    between atoms: _356  and  _357
REMARK  148  A    between atoms: _359  and  _361
REMARK  149  A    between atoms: _361  and  _362
REMARK  150  A    between atoms: _361  and  _364
REMARK  151  A    between atoms: _364  and  _365
REMARK  152  A    between atoms: _368  and  _370
REMARK  153  A    between atoms: _370  and  _371
REMARK  154  A    between atoms: _373  and  _375
REMARK  155  A    between atoms: _375  and  _376
REMARK  156  A    between atoms: _378  and  _380
REMARK  157  A    between atoms: _380  and  _381
REMARK  158  A    between atoms: _380  and  _383
REMARK  159  A    between atoms: _383  and  _384
REMARK  160  A    between atoms: _387  and  _389
REMARK  161  A    between atoms: _389  and  _390
REMARK  162  A    between atoms: _392  and  _394
REMARK  163  A    between atoms: _394  and  _395
REMARK  164  A    between atoms: _397  and  _399
REMARK  165  A    between atoms: _399  and  _400
REMARK  166  A    between atoms: _399  and  _402
REMARK  167  A    between atoms: _402  and  _403
REMARK  168  A    between atoms: _409  and  _411
REMARK  169  A    between atoms: _411  and  _412
REMARK  170  A    between atoms: _411  and  _414
REMARK  171  A    between atoms: _414  and  _415
REMARK  172  A    between atoms: _418  and  _420
REMARK  173  A    between atoms: _420  and  _421
REMARK  174  A    between atoms: _420  and  _423
REMARK  175  A    between atoms: _423  and  _424
REMARK  176  A    between atoms: _428  and  _429
REMARK  177  A    between atoms: _434  and  _436
REMARK  178  A    between atoms: _436  and  _437
REMARK  179  A    between atoms: _436  and  _439
REMARK  180  A    between atoms: _439  and  _440
REMARK  181  A    between atoms: _444  and  _445
REMARK  182  A    between atoms: _450  and  _452
REMARK  183  A    between atoms: _452  and  _453
REMARK  184  A    between atoms: _452  and  _455
REMARK  185  A    between atoms: _458  and  _460
REMARK  186  A    between atoms: _460  and  _461
REMARK  187  A    between atoms: _460  and  _463
REMARK  188  A    between atoms: _463  and  _464
REMARK  189  A    between atoms: _469  and  _471
REMARK  190  A    between atoms: _471  and  _472
REMARK  191  A    between atoms: _471  and  _474
REMARK  192  A    between atoms: _474  and  _475
REMARK  193  A    between atoms: _478  and  _480
REMARK  194  A    between atoms: _480  and  _481
REMARK  195  A    between atoms: _483  and  _485
REMARK  196  A    between atoms: _485  and  _486
REMARK  197  A    between atoms: _485  and  _488
REMARK  198  A    between atoms: _488  and  _489
REMARK  199  A    between atoms: _489  and  _490
REMARK  200  A    between atoms: _490  and  _491
REMARK                            x       y       z     vdW  Elec       q    Type
REMARK                         _______ _______ _______ _____ _____    ______ ____
ROOT
ATOM      1  C   GLY A   3      -8.872  10.118  28.855  0.00  0.00    +0.243 C 
ATOM      2  O   GLY A   3      -9.757   9.279  28.683  0.00  0.00    -0.273 OA
ATOM      3  N   ILE A   4      -8.157  10.652  27.872  0.00  0.00    -0.297 N 
ATOM      4  H   ILE A   4      -7.441  11.364  28.119  0.00  0.00    +0.150 HD
ENDROOT
BRANCH   3   5
ATOM      5  CA  ILE A   4      -8.314  10.304  26.485  0.00  0.00    +0.149 C 
BRANCH   5   6
ATOM      6  C   ILE A   4      -6.947  10.175  25.836  0.00  0.00    +0.241 C 
ATOM      7  N   GLY A   5      -6.466   8.945  25.778  0.00  0.00    -0.295 N 
ATOM      8  H   GLY A   5      -5.549   8.781  25.315  0.00  0.00    +0.150 HD
ATOM      9  O   ILE A   4      -6.342  11.154  25.381  0.00  0.00    -0.273 OA
BRANCH   7  10
ATOM     10  CA  GLY A   5      -7.178   7.829  26.338  0.00  0.00    +0.176 C 
BRANCH  10  11
ATOM     11  C   GLY A   5      -6.282   7.369  27.463  0.00  0.00    +0.243 C 
ATOM     12  N   GLY A   6      -6.835   6.735  28.483  0.00  0.00    -0.296 N 
ATOM     13  H   GLY A   6      -7.857   6.548  28.532  0.00  0.00    +0.150 HD
ATOM     14  O   GLY A   5      -5.068   7.611  27.418  0.00  0.00    -0.273 OA
BRANCH  12  15
ATOM     15  CA  GLY A   6      -5.931   6.322  29.519  0.00  0.00    +0.163 C 
BRANCH  15  16
ATOM     16  C   GLY A   6      -6.233   6.953  30.851  0.00  0.00    +0.229 C 
ATOM     17  O   GLY A   6      -7.044   7.880  30.955  0.00  0.00    -0.286 OA
ENDBRANCH  15  16
ENDBRANCH  12  15
ENDBRANCH  10  11
ENDBRANCH   7  10
ENDBRANCH   5   6
BRANCH   5  18
ATOM     18  CB  ILE A   4      -9.111  11.353  25.737  0.00  0.00    +0.027 C 
ATOM     19  CG2 ILE A   4      -8.881  11.212  24.239  0.00  0.00    +0.002 C 
BRANCH  18  20
ATOM     20  CG1 ILE A   4     -10.588  11.227  26.036  0.00  0.00    +0.002 C 
ATOM     21  CD1 ILE A   4     -11.454  11.890  24.973  0.00  0.00    +0.000 C 
ENDBRANCH  18  20
ENDBRANCH   5  18
ENDBRANCH   3   5
BRANCH   1  22
ATOM     22  CA  GLY A   3      -8.504  10.662  30.226  0.00  0.00    +0.176 C 
BRANCH  22  25
ATOM     23  C   GLY A   2      -9.528  10.474  32.396  0.00  0.00    +0.243 C 
ATOM     24  O   GLY A   2      -9.532  11.697  32.559  0.00  0.00    -0.273 OA
ATOM     25  N   GLY A   3      -9.049   9.890  31.307  0.00  0.00    -0.295 N 
ATOM     26  H   GLY A   3      -9.068   8.853  31.234  0.00  0.00    +0.150 HD
BRANCH  23  27
ATOM     27  CA  GLY A   2     -10.068   9.500  33.450  0.00  0.00    +0.176 C 
BRANCH  27  30
ATOM     28  C   ILE A   1      -8.571   9.390  35.387  0.00  0.00    +0.238 C 
ATOM     29  O   ILE A   1      -7.807   8.560  34.896  0.00  0.00    -0.274 OA
ATOM     30  N   GLY A   2      -9.658   9.867  34.790  0.00  0.00    -0.296 N 
ATOM     31  H   GLY A   2     -10.249  10.543  35.315  0.00  0.00    +0.150 HD
BRANCH  28  32
ATOM     32  CA  ILE A   1      -8.323   9.931  36.776  0.00  0.00    +0.145 C 
BRANCH  32  33
ATOM     33  N   ILE A   1      -7.172   9.298  37.376  0.00  0.00    -0.238 NA
ATOM     34  H   ILE A   1      -6.260   9.288  36.877  0.00  0.00    +0.142 HD
ENDBRANCH  32  33
BRANCH  32  35
ATOM     35  CB  ILE A   1      -8.298  11.467  36.825  0.00  0.00    +0.025 C 
ATOM     36  CG2 ILE A   1      -8.155  11.955  38.260  0.00  0.00    +0.002 C 
BRANCH  35  37
ATOM     37  CG1 ILE A   1      -7.174  12.043  35.971  0.00  0.00    +0.002 C 
ATOM     38  CD1 ILE A   1      -7.538  13.377  35.327  0.00  0.00    +0.000 C 
ENDBRANCH  35  37
ENDBRANCH  32  35
ENDBRANCH  28  32
ENDBRANCH  27  30
ENDBRANCH  23  27
ENDBRANCH  22  25
ENDBRANCH   1  22
TORSDOF 16
REMARK  Name = ../refined-set-2016/1hvh/1hvh_pocket.pdb
REMARK  200 active torsions:
REMARK  status: ('A' for Active; 'I' for Inactive)
REMARK    1  A    between atoms: _1  and  _3
REMARK    2  A    between atoms: _3  and  _4
REMARK    3  A    between atoms: _3  and  _6
REMARK    4  A    between atoms: _6  and  _7
REMARK    5  A    between atoms: _7  and  _8
REMARK    6  A    between atoms: _8  and  _9
REMARK    7  A    between atoms: _18  and  _20
REMARK    8  A    between atoms: _20  and  _21
REMARK    9  A    between atoms: _20  and  _23
REMARK   10  A    between atoms: _23  and  _24
REMARK   11  A    between atoms: _27  and  _29
REMARK   12  A    between atoms: _29  and  _30
REMARK   13  A    between atoms: _29  and  _32
REMARK   14  A    between atoms: _32  and  _33
REMARK   15  A    between atoms: _36  and  _38
REMARK   16  A    between atoms: _38  and  _39
REMARK   17  A    between atoms: _38  and  _41
REMARK   18  A    between atoms: _41  and  _42
REMARK   19  A    between atoms: _45  and  _47
REMARK   20  A    between atoms: _47  and  _48
REMARK   21  A    between atoms: _47  and  _50
REMARK   22  A    between atoms: _50  and  _51
REMARK   23  A    between atoms: _54  and  _56
REMARK   24  A    between atoms: _56  and  _57
REMARK   25  A    between atoms: _59  and  _61
REMARK   26  A    between atoms: _61  and  _62
REMARK   27  A    between atoms: _65  and  _67
REMARK   28  A    between atoms: _67  and  _68
REMARK   29  A    between atoms: _67  and  _70
REMARK   30  A    between atoms: _70  and  _71
REMARK   31  A    between atoms: _74  and  _76
REMARK   32  A    between atoms: _76  and  _77
REMARK   33  A    between atoms: _76  and  _79
REMARK   34  A    between atoms: _79  and  _80
REMARK   35  A    between atoms: _83  and  _85
REMARK   36  A    between atoms: _85  and  _86
REMARK   37  A    between atoms: _85  and  _88
REMARK   38  A    between atoms: _88  and  _89
REMARK   39  A    between atoms: _92  and  _94
REMARK   40  A    between atoms: _94  and  _95
REMARK   41  A    between atoms: _94  and  _97
REMARK   42  A    between atoms: _100  and  _102
REMARK   43  A    between atoms: _102  and  _103
REMARK   44  A    between atoms: _102  and  _105
REMARK   45  A    between atoms: _105  and  _106
REMARK   46  A    between atoms: _109  and  _111
REMARK   47  A    between atoms: _111  and  _112
REMARK   48  A    between atoms: _111  and  _114
REMARK   49  A    between atoms: _114  and  _115
REMARK   50  A    between atoms: _118  and  _120
REMARK   51  A    between atoms: _120  and  _121
REMARK   52  A    between atoms: _123  and  _125
REMARK   53  A    between atoms: _125  and  _126
REMARK   54  A    between atoms: _128  and  _130
REMARK   55  A    between atoms: _130  and  _131
REMARK   56  A    between atoms: _130  and  _133
REMARK   57  A    between atoms: _133  and  _134
REMARK   58  A    between atoms: _137  and  _139
REMARK   59  A    between atoms: _139  and  _140
REMARK   60  A    between atoms: _142  and  _144
REMARK   61  A    between atoms: _144  and  _145
REMARK   62  A    between atoms: _147  and  _149
REMARK   63  A    between atoms: _149  and  _150
REMARK   64  A    between atoms: _149  and  _152
REMARK   65  A    between atoms: _152  and  _153
REMARK   66  A    between atoms: _156  and  _158
REMARK   67  A    between atoms: _158  and  _159
REMARK   68  A    between atoms: _158  and  _161
REMARK   69  A    between atoms: _161  and  _162
REMARK   70  A    between atoms: _165  and  _167
REMARK   71  A    between atoms: _167  and  _168
REMARK   72  A    between atoms: _167  and  _170
REMARK   73  A    between atoms: _170  and  _171
REMARK   74  A    between atoms: _175  and  _176
REMARK   75  A    between atoms: _181  and  _183
REMARK   76  A    between atoms: _183  and  _184
REMARK   77  A    between atoms: _183  and  _186
REMARK   78  A    between atoms: _189  and  _191
REMARK   79  A    between atoms: _191  and  _192
REMARK   80  A    between atoms: _191  and  _194
REMARK   81  A    between atoms: _194  and  _195
REMARK   82  A    between atoms: _200  and  _202
REMARK   83  A    between atoms: _202  and  _203
REMARK   84  A    between atoms: _202  and  _205
REMARK   85  A    between atoms: _205  and  _206
REMARK   86  A    between atoms: _209  and  _211
REMARK   87  A    between atoms: _211  and  _212
REMARK   88  A    between atoms: _211  and  _214
REMARK   89  A    between atoms: _214  and  _215
REMARK   90  A    between atoms: _218  and  _220
REMARK   91  A    between atoms: _220  and  _221
REMARK   92  A    between atoms: _223  and  _225
REMARK   93  A    between atoms: _225  and  _226
REMARK   94  A    between atoms: _225  and  _228
REMARK   95  A    between atoms: _228  and  _229
REMARK   96  A    between atoms: _229  and  _230
REMARK   97  A    between atoms: _230  and  _231
REMARK   98  A    between atoms: _240  and  _242
REMARK   99  A    between atoms: _242  and  _243
REMARK  100  A    between atoms: _242  and  _245
REMARK  101  A    between atoms: _245  and  _246
REMARK  102  A    between atoms: _251  and  _253
REMARK  103  A    between atoms: _253  and  _254
REMARK  104  A    between atoms: _253  and  _256
REMARK  105  A    between atoms: _256  and  _257
REMARK  106  A    between atoms: _257  and  _258
REMARK  107  A    between atoms: _258  and  _259
REMARK  108  A    between atoms: _268  and  _270
REMARK  109  A    between atoms: _270  and  _271
REMARK  110  A    between atoms: _270  and  _273
REMARK  111  A    between atoms: _273  and  _274
REMARK  112  A    between atoms: _277  and  _279
REMARK  113  A    between atoms: _279  and  _280
REMARK  114  A    between atoms: _279  and  _282
REMARK  115  A    between atoms: _282  and  _283
REMARK  116  A    between atoms: _286  and  _288
REMARK  117  A    between atoms: _288  and  _289
REMARK  118  A    between atoms: _288  and  _291
REMARK  119  A    between atoms: _291  and  _292
REMARK  120  A    between atoms: _295  and  _297
REMARK  121  A    between atoms: _297  and  _298
REMARK  122  A    between atoms: _297  and  _300
REMARK  123  A    between atoms: _300  and  _301
REMARK  124  A    between atoms: _304  and  _306
REMARK  125  A    between atoms: _306  and  _307
REMARK  126  A    between atoms: _309  and  _311
REMARK  127  A    between atoms: _311  and  _312
REMARK  128  A    between atoms: _315  and  _317
REMARK  129  A    between atoms: _317  and  _318
REMARK  130  A    between atoms: _317  and  _320
REMARK  131  A    between atoms: _320  and  _321
REMARK  132  A    between atoms: _324  and  _326
REMARK  133  A    between atoms: _326  and  _327
REMARK  134  A    between atoms: _326  and  _329
REMARK  135  A    between atoms: _329  and  _330
REMARK  136  A    between atoms: _333  and  _335
REMARK  137  A    between atoms: _335  and  _336
REMARK  138  A    between atoms: _335  and  _338
REMARK  139  A    between atoms: _338  and  _339
REMARK  140  A    between atoms: _342  and  _344
REMARK  141  A    between atoms: _344  and  _345
REMARK  142  A    between atoms: _344  and  _347
REMARK  143  A    between atoms: _350  and  _352
REMARK  144  A    between atoms: _352  and  _353
REMARK  145  A    between atoms: _352  and  _355
REMARK  146  A    between atoms: _355  and  _356
REMARK  147  A    between atoms: _356  and  _357
REMARK  148  A    between atoms: _359  and  _361
REMARK  149  A    between atoms: _361  and  _362
REMARK  150  A    between atoms: _361  and  _364
REMARK  151  A    between atoms: _364  and  _365
REMARK  152  A    between atoms: _368  and  _370
REMARK  153  A    between atoms: _370  and  _371
REMARK  154  A    between atoms: _373  and  _375
REMARK  155  A    between atoms: _375  and  _376
REMARK  156  A    between atoms: _378  and  _380
REMARK  157  A    between atoms: _380  and  _381
REMARK  158  A    between atoms: _380  and  _383
REMARK  159  A    between atoms: _383  and  _384
REMARK  160  A    between atoms: _387  and  _389
REMARK  161  A    between atoms: _389  and  _390
REMARK  162  A    between atoms: _392  and  _394
REMARK  163  A    between atoms: _394  and  _395
REMARK  164  A    between atoms: _397  and  _399
REMARK  165  A    between atoms: _399  and  _400
REMARK  166  A    between atoms: _399  and  _402
REMARK  167  A    between atoms: _402  and  _403
REMARK  168  A    between atoms: _409  and  _411
REMARK  169  A    between atoms: _411  and  _412
REMARK  170  A    between atoms: _411  and  _414
REMARK  171  A    between atoms: _414  and  _415
REMARK  172  A    between atoms: _418  and  _420
REMARK  173  A    between atoms: _420  and  _421
REMARK  174  A    between atoms: _420  and  _423
REMARK  175  A    between atoms: _423  and  _424
REMARK  176  A    between atoms: _428  and  _429
REMARK  177  A    between atoms: _434  and  _436
REMARK  178  A    between atoms: _436  and  _437
REMARK  179  A    between atoms: _436  and  _439
REMARK  180  A    between atoms: _439  and  _440
REMARK  181  A    between atoms: _444  and  _445
REMARK  182  A    between atoms: _450  and  _452
REMARK  183  A    between atoms: _452  and  _453
REMARK  184  A    between atoms: _452  and  _455
REMARK  185  A    between atoms: _458  and  _460
REMARK  186  A    between atoms: _460  and  _461
REMARK  187  A    between atoms: _460  and  _463
REMARK  188  A    between atoms: _463  and  _464
REMARK  189  A    between atoms: _469  and  _471
REMARK  190  A    between atoms: _471  and  _472
REMARK  191  A    between atoms: _471  and  _474
REMARK  192  A    between atoms: _474  and  _475
REMARK  193  A    between atoms: _478  and  _480
REMARK  194  A    between atoms: _480  and  _481
REMARK  195  A    between atoms: _483  and  _485
REMARK  196  A    between atoms: _485  and  _486
REMARK  197  A    between atoms: _485  and  _488
REMARK  198  A    between atoms: _488  and  _489
REMARK  199  A    between atoms: _489  and  _490
REMARK  200  A    between atoms: _490  and  _491
REMARK                            x       y       z     vdW  Elec       q    Type
REMARK                         _______ _______ _______ _____ _____    ______ ____
ROOT
ATOM      1  CA  ILE A   1      -3.186   9.030  34.988  0.00  0.00    +0.133 C 
ENDROOT
BRANCH   1   2
ATOM      2  N   ILE A   1      -4.366   8.425  34.421  0.00  0.00    -0.239 NA
ATOM      3  H   ILE A   1      -5.285   8.901  34.522  0.00  0.00    +0.142 HD
ENDBRANCH   1   2
BRANCH   1   4
ATOM      4  C   ILE A   1      -3.249   9.224  36.500  0.00  0.00    +0.224 C 
ATOM      5  O   ILE A   1      -4.184   9.825  37.023  0.00  0.00    -0.287 OA
ENDBRANCH   1   4
BRANCH   1   6
ATOM      6  CB  ILE A   1      -2.700  10.288  34.227  0.00  0.00    +0.023 C 
ATOM      7  CG2 ILE A   1      -2.911  10.138  32.721  0.00  0.00    +0.002 C 
BRANCH   6   8
ATOM      8  CG1 ILE A   1      -3.344  11.578  34.753  0.00  0.00    +0.002 C 
ATOM      9  CD1 ILE A   1      -2.372  12.742  34.942  0.00  0.00    +0.000 C 
ENDBRANCH   6   8
ENDBRANCH   1   6
TORSDOF 4
REMARK  Name = ../refined-set-2016/1hvh/1hvh_pocket.pdb
REMARK  200 active torsions:
REMARK  status: ('A' for Active; 'I' for Inactive)
REMARK    1  A    between atoms: _1  and  _3
REMARK    2  A    between atoms: _3  and  _4
REMARK    3  A    between atoms: _3  and  _6
REMARK    4  A    between atoms: _6  and  _7
REMARK    5  A    between atoms: _7  and  _8
REMARK    6  A    between atoms: _8  and  _9
REMARK    7  A    between atoms: _18  and  _20
REMARK    8  A    between atoms: _20  and  _21
REMARK    9  A    between atoms: _20  and  _23
REMARK   10  A    between atoms: _23  and  _24
REMARK   11  A    between atoms: _27  and  _29
REMARK   12  A    between atoms: _29  and  _30
REMARK   13  A    between atoms: _29  and  _32
REMARK   14  A    between atoms: _32  and  _33
REMARK   15  A    between atoms: _36  and  _38
REMARK   16  A    between atoms: _38  and  _39
REMARK   17  A    between atoms: _38  and  _41
REMARK   18  A    between atoms: _41  and  _42
REMARK   19  A    between atoms: _45  and  _47
REMARK   20  A    between atoms: _47  and  _48
REMARK   21  A    between atoms: _47  and  _50
REMARK   22  A    between atoms: _50  and  _51
REMARK   23  A    between atoms: _54  and  _56
REMARK   24  A    between atoms: _56  and  _57
REMARK   25  A    between atoms: _59  and  _61
REMARK   26  A    between atoms: _61  and  _62
REMARK   27  A    between atoms: _65  and  _67
REMARK   28  A    between atoms: _67  and  _68
REMARK   29  A    between atoms: _67  and  _70
REMARK   30  A    between atoms: _70  and  _71
REMARK   31  A    between atoms: _74  and  _76
REMARK   32  A    between atoms: _76  and  _77
REMARK   33  A    between atoms: _76  and  _79
REMARK   34  A    between atoms: _79  and  _80
REMARK   35  A    between atoms: _83  and  _85
REMARK   36  A    between atoms: _85  and  _86
REMARK   37  A    between atoms: _85  and  _88
REMARK   38  A    between atoms: _88  and  _89
REMARK   39  A    between atoms: _92  and  _94
REMARK   40  A    between atoms: _94  and  _95
REMARK   41  A    between atoms: _94  and  _97
REMARK   42  A    between atoms: _100  and  _102
REMARK   43  A    between atoms: _102  and  _103
REMARK   44  A    between atoms: _102  and  _105
REMARK   45  A    between atoms: _105  and  _106
REMARK   46  A    between atoms: _109  and  _111
REMARK   47  A    between atoms: _111  and  _112
REMARK   48  A    between atoms: _111  and  _114
REMARK   49  A    between atoms: _114  and  _115
REMARK   50  A    between atoms: _118  and  _120
REMARK   51  A    between atoms: _120  and  _121
REMARK   52  A    between atoms: _123  and  _125
REMARK   53  A    between atoms: _125  and  _126
REMARK   54  A    between atoms: _128  and  _130
REMARK   55  A    between atoms: _130  and  _131
REMARK   56  A    between atoms: _130  and  _133
REMARK   57  A    between atoms: _133  and  _134
REMARK   58  A    between atoms: _137  and  _139
REMARK   59  A    between atoms: _139  and  _140
REMARK   60  A    between atoms: _142  and  _144
REMARK   61  A    between atoms: _144  and  _145
REMARK   62  A    between atoms: _147  and  _149
REMARK   63  A    between atoms: _149  and  _150
REMARK   64  A    between atoms: _149  and  _152
REMARK   65  A    between atoms: _152  and  _153
REMARK   66  A    between atoms: _156  and  _158
REMARK   67  A    between atoms: _158  and  _159
REMARK   68  A    between atoms: _158  and  _161
REMARK   69  A    between atoms: _161  and  _162
REMARK   70  A    between atoms: _165  and  _167
REMARK   71  A    between atoms: _167  and  _168
REMARK   72  A    between atoms: _167  and  _170
REMARK   73  A    between atoms: _170  and  _171
REMARK   74  A    between atoms: _175  and  _176
REMARK   75  A    between atoms: _181  and  _183
REMARK   76  A    between atoms: _183  and  _184
REMARK   77  A    between atoms: _183  and  _186
REMARK   78  A    between atoms: _189  and  _191
REMARK   79  A    between atoms: _191  and  _192
REMARK   80  A    between atoms: _191  and  _194
REMARK   81  A    between atoms: _194  and  _195
REMARK   82  A    between atoms: _200  and  _202
REMARK   83  A    between atoms: _202  and  _203
REMARK   84  A    between atoms: _202  and  _205
REMARK   85  A    between atoms: _205  and  _206
REMARK   86  A    between atoms: _209  and  _211
REMARK   87  A    between atoms: _211  and  _212
REMARK   88  A    between atoms: _211  and  _214
REMARK   89  A    between atoms: _214  and  _215
REMARK   90  A    between atoms: _218  and  _220
REMARK   91  A    between atoms: _220  and  _221
REMARK   92  A    between atoms: _223  and  _225
REMARK   93  A    between atoms: _225  and  _226
REMARK   94  A    between atoms: _225  and  _228
REMARK   95  A    between atoms: _228  and  _229
REMARK   96  A    between atoms: _229  and  _230
REMARK   97  A    between atoms: _230  and  _231
REMARK   98  A    between atoms: _240  and  _242
REMARK   99  A    between atoms: _242  and  _243
REMARK  100  A    between atoms: _242  and  _245
REMARK  101  A    between atoms: _245  and  _246
REMARK  102  A    between atoms: _251  and  _253
REMARK  103  A    between atoms: _253  and  _254
REMARK  104  A    between atoms: _253  and  _256
REMARK  105  A    between atoms: _256  and  _257
REMARK  106  A    between atoms: _257  and  _258
REMARK  107  A    between atoms: _258  and  _259
REMARK  108  A    between atoms: _268  and  _270
REMARK  109  A    between atoms: _270  and  _271
REMARK  110  A    between atoms: _270  and  _273
REMARK  111  A    between atoms: _273  and  _274
REMARK  112  A    between atoms: _277  and  _279
REMARK  113  A    between atoms: _279  and  _280
REMARK  114  A    between atoms: _279  and  _282
REMARK  115  A    between atoms: _282  and  _283
REMARK  116  A    between atoms: _286  and  _288
REMARK  117  A    between atoms: _288  and  _289
REMARK  118  A    between atoms: _288  and  _291
REMARK  119  A    between atoms: _291  and  _292
REMARK  120  A    between atoms: _295  and  _297
REMARK  121  A    between atoms: _297  and  _298
REMARK  122  A    between atoms: _297  and  _300
REMARK  123  A    between atoms: _300  and  _301
REMARK  124  A    between atoms: _304  and  _306
REMARK  125  A    between atoms: _306  and  _307
REMARK  126  A    between atoms: _309  and  _311
REMARK  127  A    between atoms: _311  and  _312
REMARK  128  A    between atoms: _315  and  _317
REMARK  129  A    between atoms: _317  and  _318
REMARK  130  A    between atoms: _317  and  _320
REMARK  131  A    between atoms: _320  and  _321
REMARK  132  A    between atoms: _324  and  _326
REMARK  133  A    between atoms: _326  and  _327
REMARK  134  A    between atoms: _326  and  _329
REMARK  135  A    between atoms: _329  and  _330
REMARK  136  A    between atoms: _333  and  _335
REMARK  137  A    between atoms: _335  and  _336
REMARK  138  A    between atoms: _335  and  _338
REMARK  139  A    between atoms: _338  and  _339
REMARK  140  A    between atoms: _342  and  _344
REMARK  141  A    between atoms: _344  and  _345
REMARK  142  A    between atoms: _344  and  _347
REMARK  143  A    between atoms: _350  and  _352
REMARK  144  A    between atoms: _352  and  _353
REMARK  145  A    between atoms: _352  and  _355
REMARK  146  A    between atoms: _355  and  _356
REMARK  147  A    between atoms: _356  and  _357
REMARK  148  A    between atoms: _359  and  _361
REMARK  149  A    between atoms: _361  and  _362
REMARK  150  A    between atoms: _361  and  _364
REMARK  151  A    between atoms: _364  and  _365
REMARK  152  A    between atoms: _368  and  _370
REMARK  153  A    between atoms: _370  and  _371
REMARK  154  A    between atoms: _373  and  _375
REMARK  155  A    between atoms: _375  and  _376
REMARK  156  A    between atoms: _378  and  _380
REMARK  157  A    between atoms: _380  and  _381
REMARK  158  A    between atoms: _380  and  _383
REMARK  159  A    between atoms: _383  and  _384
REMARK  160  A    between atoms: _387  and  _389
REMARK  161  A    between atoms: _389  and  _390
REMARK  162  A    between atoms: _392  and  _394
REMARK  163  A    between atoms: _394  and  _395
REMARK  164  A    between atoms: _397  and  _399
REMARK  165  A    between atoms: _399  and  _400
REMARK  166  A    between atoms: _399  and  _402
REMARK  167  A    between atoms: _402  and  _403
REMARK  168  A    between atoms: _409  and  _411
REMARK  169  A    between atoms: _411  and  _412
REMARK  170  A    between atoms: _411  and  _414
REMARK  171  A    between atoms: _414  and  _415
REMARK  172  A    between atoms: _418  and  _420
REMARK  173  A    between atoms: _420  and  _421
REMARK  174  A    between atoms: _420  and  _423
REMARK  175  A    between atoms: _423  and  _424
REMARK  176  A    between atoms: _428  and  _429
REMARK  177  A    between atoms: _434  and  _436
REMARK  178  A    between atoms: _436  and  _437
REMARK  179  A    between atoms: _436  and  _439
REMARK  180  A    between atoms: _439  and  _440
REMARK  181  A    between atoms: _444  and  _445
REMARK  182  A    between atoms: _450  and  _452
REMARK  183  A    between atoms: _452  and  _453
REMARK  184  A    between atoms: _452  and  _455
REMARK  185  A    between atoms: _458  and  _460
REMARK  186  A    between atoms: _460  and  _461
REMARK  187  A    between atoms: _460  and  _463
REMARK  188  A    between atoms: _463  and  _464
REMARK  189  A    between atoms: _469  and  _471
REMARK  190  A    between atoms: _471  and  _472
REMARK  191  A    between atoms: _471  and  _474
REMARK  192  A    between atoms: _474  and  _475
REMARK  193  A    between atoms: _478  and  _480
REMARK  194  A    between atoms: _480  and  _481
REMARK  195  A    between atoms: _483  and  _485
REMARK  196  A    between atoms: _485  and  _486
REMARK  197  A    between atoms: _485  and  _488
REMARK  198  A    between atoms: _488  and  _489
REMARK  199  A    between atoms: _489  and  _490
REMARK  200  A    between atoms: _490  and  _491
REMARK                            x       y       z     vdW  Elec       q    Type
REMARK                         _______ _______ _______ _____ _____    ______ ____
ROOT
ATOM      1  CA  LEU A   1      -4.375  17.502  40.980  0.00  0.00    +0.133 C 
ENDROOT
BRANCH   1   2
ATOM      2  N   LEU A   1      -5.063  18.784  41.101  0.00  0.00    -0.239 NA
ATOM      3  H   LEU A   1      -5.615  19.133  40.291  0.00  0.00    +0.142 HD
ENDBRANCH   1   2
BRANCH   1   4
ATOM      4  C   LEU A   1      -3.062  17.803  40.314  0.00  0.00    +0.224 C 
ATOM      5  O   LEU A   1      -3.002  18.696  39.482  0.00  0.00    -0.287 OA
ENDBRANCH   1   4
BRANCH   1   6
ATOM      6  CB  LEU A   1      -5.126  16.515  40.056  0.00  0.00    +0.025 C 
BRANCH   6   7
ATOM      7  CG  LEU A   1      -6.419  15.929  40.635  0.00  0.00    +0.002 C 
ATOM      8  CD2 LEU A   1      -6.947  16.824  41.729  0.00  0.00    +0.000 C 
ATOM      9  CD1 LEU A   1      -7.483  15.836  39.550  0.00  0.00    +0.000 C 
ENDBRANCH   6   7
ENDBRANCH   1   6
TORSDOF 4
REMARK  Name = ../refined-set-2016/1hvh/1hvh_pocket.pdb
REMARK  200 active torsions:
REMARK  status: ('A' for Active; 'I' for Inactive)
REMARK    1  A    between atoms: _1  and  _3
REMARK    2  A    between atoms: _3  and  _4
REMARK    3  A    between atoms: _3  and  _6
REMARK    4  A    between atoms: _6  and  _7
REMARK    5  A    between atoms: _7  and  _8
REMARK    6  A    between atoms: _8  and  _9
REMARK    7  A    between atoms: _18  and  _20
REMARK    8  A    between atoms: _20  and  _21
REMARK    9  A    between atoms: _20  and  _23
REMARK   10  A    between atoms: _23  and  _24
REMARK   11  A    between atoms: _27  and  _29
REMARK   12  A    between atoms: _29  and  _30
REMARK   13  A    between atoms: _29  and  _32
REMARK   14  A    between atoms: _32  and  _33
REMARK   15  A    between atoms: _36  and  _38
REMARK   16  A    between atoms: _38  and  _39
REMARK   17  A    between atoms: _38  and  _41
REMARK   18  A    between atoms: _41  and  _42
REMARK   19  A    between atoms: _45  and  _47
REMARK   20  A    between atoms: _47  and  _48
REMARK   21  A    between atoms: _47  and  _50
REMARK   22  A    between atoms: _50  and  _51
REMARK   23  A    between atoms: _54  and  _56
REMARK   24  A    between atoms: _56  and  _57
REMARK   25  A    between atoms: _59  and  _61
REMARK   26  A    between atoms: _61  and  _62
REMARK   27  A    between atoms: _65  and  _67
REMARK   28  A    between atoms: _67  and  _68
REMARK   29  A    between atoms: _67  and  _70
REMARK   30  A    between atoms: _70  and  _71
REMARK   31  A    between atoms: _74  and  _76
REMARK   32  A    between atoms: _76  and  _77
REMARK   33  A    between atoms: _76  and  _79
REMARK   34  A    between atoms: _79  and  _80
REMARK   35  A    between atoms: _83  and  _85
REMARK   36  A    between atoms: _85  and  _86
REMARK   37  A    between atoms: _85  and  _88
REMARK   38  A    between atoms: _88  and  _89
REMARK   39  A    between atoms: _92  and  _94
REMARK   40  A    between atoms: _94  and  _95
REMARK   41  A    between atoms: _94  and  _97
REMARK   42  A    between atoms: _100  and  _102
REMARK   43  A    between atoms: _102  and  _103
REMARK   44  A    between atoms: _102  and  _105
REMARK   45  A    between atoms: _105  and  _106
REMARK   46  A    between atoms: _109  and  _111
REMARK   47  A    between atoms: _111  and  _112
REMARK   48  A    between atoms: _111  and  _114
REMARK   49  A    between atoms: _114  and  _115
REMARK   50  A    between atoms: _118  and  _120
REMARK   51  A    between atoms: _120  and  _121
REMARK   52  A    between atoms: _123  and  _125
REMARK   53  A    between atoms: _125  and  _126
REMARK   54  A    between atoms: _128  and  _130
REMARK   55  A    between atoms: _130  and  _131
REMARK   56  A    between atoms: _130  and  _133
REMARK   57  A    between atoms: _133  and  _134
REMARK   58  A    between atoms: _137  and  _139
REMARK   59  A    between atoms: _139  and  _140
REMARK   60  A    between atoms: _142  and  _144
REMARK   61  A    between atoms: _144  and  _145
REMARK   62  A    between atoms: _147  and  _149
REMARK   63  A    between atoms: _149  and  _150
REMARK   64  A    between atoms: _149  and  _152
REMARK   65  A    between atoms: _152  and  _153
REMARK   66  A    between atoms: _156  and  _158
REMARK   67  A    between atoms: _158  and  _159
REMARK   68  A    between atoms: _158  and  _161
REMARK   69  A    between atoms: _161  and  _162
REMARK   70  A    between atoms: _165  and  _167
REMARK   71  A    between atoms: _167  and  _168
REMARK   72  A    between atoms: _167  and  _170
REMARK   73  A    between atoms: _170  and  _171
REMARK   74  A    between atoms: _175  and  _176
REMARK   75  A    between atoms: _181  and  _183
REMARK   76  A    between atoms: _183  and  _184
REMARK   77  A    between atoms: _183  and  _186
REMARK   78  A    between atoms: _189  and  _191
REMARK   79  A    between atoms: _191  and  _192
REMARK   80  A    between atoms: _191  and  _194
REMARK   81  A    between atoms: _194  and  _195
REMARK   82  A    between atoms: _200  and  _202
REMARK   83  A    between atoms: _202  and  _203
REMARK   84  A    between atoms: _202  and  _205
REMARK   85  A    between atoms: _205  and  _206
REMARK   86  A    between atoms: _209  and  _211
REMARK   87  A    between atoms: _211  and  _212
REMARK   88  A    between atoms: _211  and  _214
REMARK   89  A    between atoms: _214  and  _215
REMARK   90  A    between atoms: _218  and  _220
REMARK   91  A    between atoms: _220  and  _221
REMARK   92  A    between atoms: _223  and  _225
REMARK   93  A    between atoms: _225  and  _226
REMARK   94  A    between atoms: _225  and  _228
REMARK   95  A    between atoms: _228  and  _229
REMARK   96  A    between atoms: _229  and  _230
REMARK   97  A    between atoms: _230  and  _231
REMARK   98  A    between atoms: _240  and  _242
REMARK   99  A    between atoms: _242  and  _243
REMARK  100  A    between atoms: _242  and  _245
REMARK  101  A    between atoms: _245  and  _246
REMARK  102  A    between atoms: _251  and  _253
REMARK  103  A    between atoms: _253  and  _254
REMARK  104  A    between atoms: _253  and  _256
REMARK  105  A    between atoms: _256  and  _257
REMARK  106  A    between atoms: _257  and  _258
REMARK  107  A    between atoms: _258  and  _259
REMARK  108  A    between atoms: _268  and  _270
REMARK  109  A    between atoms: _270  and  _271
REMARK  110  A    between atoms: _270  and  _273
REMARK  111  A    between atoms: _273  and  _274
REMARK  112  A    between atoms: _277  and  _279
REMARK  113  A    between atoms: _279  and  _280
REMARK  114  A    between atoms: _279  and  _282
REMARK  115  A    between atoms: _282  and  _283
REMARK  116  A    between atoms: _286  and  _288
REMARK  117  A    between atoms: _288  and  _289
REMARK  118  A    between atoms: _288  and  _291
REMARK  119  A    between atoms: _291  and  _292
REMARK  120  A    between atoms: _295  and  _297
REMARK  121  A    between atoms: _297  and  _298
REMARK  122  A    between atoms: _297  and  _300
REMARK  123  A    between atoms: _300  and  _301
REMARK  124  A    between atoms: _304  and  _306
REMARK  125  A    between atoms: _306  and  _307
REMARK  126  A    between atoms: _309  and  _311
REMARK  127  A    between atoms: _311  and  _312
REMARK  128  A    between atoms: _315  and  _317
REMARK  129  A    between atoms: _317  and  _318
REMARK  130  A    between atoms: _317  and  _320
REMARK  131  A    between atoms: _320  and  _321
REMARK  132  A    between atoms: _324  and  _326
REMARK  133  A    between atoms: _326  and  _327
REMARK  134  A    between atoms: _326  and  _329
REMARK  135  A    between atoms: _329  and  _330
REMARK  136  A    between atoms: _333  and  _335
REMARK  137  A    between atoms: _335  and  _336
REMARK  138  A    between atoms: _335  and  _338
REMARK  139  A    between atoms: _338  and  _339
REMARK  140  A    between atoms: _342  and  _344
REMARK  141  A    between atoms: _344  and  _345
REMARK  142  A    between atoms: _344  and  _347
REMARK  143  A    between atoms: _350  and  _352
REMARK  144  A    between atoms: _352  and  _353
REMARK  145  A    between atoms: _352  and  _355
REMARK  146  A    between atoms: _355  and  _356
REMARK  147  A    between atoms: _356  and  _357
REMARK  148  A    between atoms: _359  and  _361
REMARK  149  A    between atoms: _361  and  _362
REMARK  150  A    between atoms: _361  and  _364
REMARK  151  A    between atoms: _364  and  _365
REMARK  152  A    between atoms: _368  and  _370
REMARK  153  A    between atoms: _370  and  _371
REMARK  154  A    between atoms: _373  and  _375
REMARK  155  A    between atoms: _375  and  _376
REMARK  156  A    between atoms: _378  and  _380
REMARK  157  A    between atoms: _380  and  _381
REMARK  158  A    between atoms: _380  and  _383
REMARK  159  A    between atoms: _383  and  _384
REMARK  160  A    between atoms: _387  and  _389
REMARK  161  A    between atoms: _389  and  _390
REMARK  162  A    between atoms: _392  and  _394
REMARK  163  A    between atoms: _394  and  _395
REMARK  164  A    between atoms: _397  and  _399
REMARK  165  A    between atoms: _399  and  _400
REMARK  166  A    between atoms: _399  and  _402
REMARK  167  A    between atoms: _402  and  _403
REMARK  168  A    between atoms: _409  and  _411
REMARK  169  A    between atoms: _411  and  _412
REMARK  170  A    between atoms: _411  and  _414
REMARK  171  A    between atoms: _414  and  _415
REMARK  172  A    between atoms: _418  and  _420
REMARK  173  A    between atoms: _420  and  _421
REMARK  174  A    between atoms: _420  and  _423
REMARK  175  A    between atoms: _423  and  _424
REMARK  176  A    between atoms: _428  and  _429
REMARK  177  A    between atoms: _434  and  _436
REMARK  178  A    between atoms: _436  and  _437
REMARK  179  A    between atoms: _436  and  _439
REMARK  180  A    between atoms: _439  and  _440
REMARK  181  A    between atoms: _444  and  _445
REMARK  182  A    between atoms: _450  and  _452
REMARK  183  A    between atoms: _452  and  _453
REMARK  184  A    between atoms: _452  and  _455
REMARK  185  A    between atoms: _458  and  _460
REMARK  186  A    between atoms: _460  and  _461
REMARK  187  A    between atoms: _460  and  _463
REMARK  188  A    between atoms: _463  and  _464
REMARK  189  A    between atoms: _469  and  _471
REMARK  190  A    between atoms: _471  and  _472
REMARK  191  A    between atoms: _471  and  _474
REMARK  192  A    between atoms: _474  and  _475
REMARK  193  A    between atoms: _478  and  _480
REMARK  194  A    between atoms: _480  and  _481
REMARK  195  A    between atoms: _483  and  _485
REMARK  196  A    between atoms: _485  and  _486
REMARK  197  A    between atoms: _485  and  _488
REMARK  198  A    between atoms: _488  and  _489
REMARK  199  A    between atoms: _489  and  _490
REMARK  200  A    between atoms: _490  and  _491
REMARK                            x       y       z     vdW  Elec       q    Type
REMARK                         _______ _______ _______ _____ _____    ______ ____
ROOT
ATOM      1  C   ILE A   5      -6.560  23.144  34.081  0.00  0.00    +0.241 C 
ATOM      2  O   ILE A   5      -6.291  22.592  35.152  0.00  0.00    -0.273 OA
ATOM      3  N   ILE A   6      -7.424  24.158  33.894  0.00  0.00    -0.297 N 
ATOM      4  H   ILE A   6      -7.480  24.558  32.936  0.00  0.00    +0.150 HD
ENDROOT
BRANCH   1   5
ATOM      5  CA  ILE A   5      -5.883  22.699  32.809  0.00  0.00    +0.149 C 
BRANCH   5   7
ATOM      6  C   ASN A   4      -3.606  23.209  32.165  0.00  0.00    +0.241 C 
ATOM      7  N   ILE A   5      -4.465  22.644  32.986  0.00  0.00    -0.297 N 
ATOM      8  H   ILE A   5      -4.092  22.129  33.809  0.00  0.00    +0.150 HD
ATOM      9  O   ASN A   4      -3.952  23.856  31.167  0.00  0.00    -0.273 OA
BRANCH   6  10
ATOM     10  CA  ASN A   4      -2.143  22.927  32.508  0.00  0.00    +0.158 C 
BRANCH  10  13
ATOM     11  C   VAL A   3      -1.529  21.249  30.864  0.00  0.00    +0.241 C 
ATOM     12  O   VAL A   3      -2.024  20.348  31.532  0.00  0.00    -0.273 OA
ATOM     13  N   ASN A   4      -1.520  22.513  31.275  0.00  0.00    -0.297 N 
ATOM     14  H   ASN A   4      -1.047  23.229  30.687  0.00  0.00    +0.150 HD
BRANCH  11  15
ATOM     15  CA  VAL A   3      -0.869  20.951  29.514  0.00  0.00    +0.149 C 
BRANCH  15  17
ATOM     16  C   PRO A   2       0.652  19.228  28.748  0.00  0.00    +0.241 C 
ATOM     17  N   VAL A   3      -0.407  19.581  29.438  0.00  0.00    -0.297 N 
ATOM     18  H   VAL A   3      -0.936  18.847  29.951  0.00  0.00    +0.150 HD
ATOM     19  O   PRO A   2       1.345  20.000  28.098  0.00  0.00    -0.273 OA
BRANCH  16  26
ATOM     20  C   THR A   1       0.551  17.077  31.025  0.00  0.00    +0.244 C 
ATOM     21  O   THR A   1       1.647  17.532  31.338  0.00  0.00    -0.273 OA
ATOM     22  N   PRO A   2       0.113  17.121  29.794  0.00  0.00    -0.272 N 
ATOM     23  CD  PRO A   2      -0.994  16.320  29.208  0.00  0.00    +0.094 C 
ATOM     24  CG  PRO A   2      -0.813  16.378  27.700  0.00  0.00    +0.024 C 
ATOM     25  CB  PRO A   2       0.490  17.119  27.451  0.00  0.00    +0.031 C 
ATOM     26  CA  PRO A   2       0.926  17.749  28.792  0.00  0.00    +0.152 C 
BRANCH  20  27
ATOM     27  CA  THR A   1      -0.321  16.355  32.023  0.00  0.00    +0.172 C 
BRANCH  27  28
ATOM     28  N   THR A   1       0.505  15.734  33.029  0.00  0.00    -0.236 NA
ATOM     29  H   THR A   1       0.778  16.287  33.866  0.00  0.00    +0.142 HD
ENDBRANCH  27  28
BRANCH  27  30
ATOM     30  CB  THR A   1      -1.449  17.177  32.645  0.00  0.00    +0.135 C 
ATOM     31  CG2 THR A   1      -0.943  18.261  33.590  0.00  0.00    +0.034 C 
BRANCH  30  32
ATOM     32  OG1 THR A   1      -2.307  17.659  31.638  0.00  0.00    -0.383 OA
ATOM     33  HG1 THR A   1      -1.793  18.231  31.014  0.00  0.00    +0.210 HD
ENDBRANCH  30  32
ENDBRANCH  27  30
ENDBRANCH  20  27
ENDBRANCH  16  26
ENDBRANCH  15  17
BRANCH  15  34
ATOM     34  CB  VAL A   3      -1.827  21.241  28.356  0.00  0.00    +0.027 C 
ATOM     35  CG2 VAL A   3      -2.321  22.688  28.451  0.00  0.00    +0.002 C 
ATOM     36  CG1 VAL A   3      -2.998  20.283  28.436  0.00  0.00    +0.002 C 
ENDBRANCH  15  34
ENDBRANCH  11  15
ENDBRANCH  10  13
BRANCH  10  37
ATOM     37  CB  ASN A   4      -1.433  24.118  33.194  0.00  0.00    +0.114 C 
BRANCH  37  38
ATOM     38  CG  ASN A   4       0.009  23.863  33.615  0.00  0.00    +0.222 C 
ATOM     39  OD1 ASN A   4       0.309  22.882  34.288  0.00  0.00    -0.275 OA
ATOM     40  ND2 ASN A   4       0.916  24.761  33.239  0.00  0.00    -0.329 N 
ATOM     41 HD21 ASN A   4       1.911  24.642  33.516  0.00  0.00    +0.145 HD
ATOM     42 HD22 ASN A   4       0.629  25.582  32.669  0.00  0.00    +0.145 HD
ENDBRANCH  37  38
ENDBRANCH  10  37
ENDBRANCH   6  10
ENDBRANCH   5   7
BRANCH   5  43
ATOM     43  CB  ILE A   5      -6.306  21.261  32.510  0.00  0.00    +0.027 C 
ATOM     44  CG2 ILE A   5      -7.786  20.950  32.726  0.00  0.00    +0.002 C 
BRANCH  43  45
ATOM     45  CG1 ILE A   5      -5.836  20.817  31.133  0.00  0.00    +0.002 C 
ATOM     46  CD1 ILE A   5      -5.100  19.477  31.208  0.00  0.00    +0.000 C 
ENDBRANCH  43  45
ENDBRANCH   5  43
ENDBRANCH   1   5
BRANCH   3  47
ATOM     47  CA  ILE A   6      -8.280  24.743  34.895  0.00  0.00    +0.149 C 
BRANCH  47  48
ATOM     48  C   ILE A   6      -9.633  24.242  34.548  0.00  0.00    +0.241 C 
ATOM     49  N   GLY A   7     -10.139  23.318  35.356  0.00  0.00    -0.295 N 
ATOM     50  H   GLY A   7      -9.559  23.029  36.170  0.00  0.00    +0.150 HD
ATOM     51  O   ILE A   6     -10.157  24.681  33.543  0.00  0.00    -0.273 OA
BRANCH  49  52
ATOM     52  CA  GLY A   7     -11.422  22.682  35.202  0.00  0.00    +0.176 C 
BRANCH  52  53
ATOM     53  C   GLY A   7     -12.502  23.444  35.932  0.00  0.00    +0.243 C 
ATOM     54  O   GLY A   7     -12.265  24.478  36.552  0.00  0.00    -0.273 OA
ATOM     55  N   ARG A   8     -13.714  22.943  35.832  0.00  0.00    -0.297 N 
ATOM     56  H   ARG A   8     -13.858  22.057  35.307  0.00  0.00    +0.150 HD
BRANCH  55  57
ATOM     57  CA  ARG A   8     -14.866  23.611  36.448  0.00  0.00    +0.149 C 
BRANCH  57  58
ATOM     58  C   ARG A   8     -14.789  23.963  37.911  0.00  0.00    +0.241 C 
ATOM     59  N   ASN A   9     -14.092  23.157  38.718  0.00  0.00    -0.298 N 
ATOM     60  H   ASN A   9     -13.627  22.315  38.322  0.00  0.00    +0.150 HD
ATOM     61  O   ARG A   8     -15.409  24.956  38.306  0.00  0.00    -0.273 OA
BRANCH  59  62
ATOM     62  CA  ASN A   9     -13.972  23.439  40.147  0.00  0.00    +0.146 C 
BRANCH  62  63
ATOM     63  C   ASN A   9     -13.515  24.883  40.463  0.00  0.00    +0.227 C 
ATOM     64  O   ASN A   9     -13.992  25.542  41.399  0.00  0.00    -0.286 OA
ENDBRANCH  62  63
BRANCH  62  65
ATOM     65  CB  ASN A   9     -13.187  22.340  40.899  0.00  0.00    +0.112 C 
BRANCH  65  66
ATOM     66  CG  ASN A   9     -11.720  22.357  40.577  0.00  0.00    +0.222 C 
ATOM     67  ND2 ASN A   9     -10.929  22.352  41.642  0.00  0.00    -0.329 N 
ATOM     68 HD21 ASN A   9     -11.342  22.324  42.596  0.00  0.00    +0.145 HD
ATOM     69 HD22 ASN A   9      -9.896  22.376  41.523  0.00  0.00    +0.145 HD
ATOM     70  OD1 ASN A   9     -11.308  22.389  39.399  0.00  0.00    -0.275 OA
ENDBRANCH  65  66
ENDBRANCH  62  65
ENDBRANCH  59  62
ENDBRANCH  57  58
BRANCH  57  71
ATOM     71  CB  ARG A   8     -16.211  22.960  36.178  0.00  0.00    +0.033 C 
BRANCH  71  72
ATOM     72  CG  ARG A   8     -16.471  22.658  34.711  0.00  0.00    +0.045 C 
BRANCH  72  73
ATOM     73  CD  ARG A   8     -17.950  22.380  34.454  0.00  0.00    +0.174 C 
BRANCH  73  74
ATOM     74  NE  ARG A   8     -18.611  21.648  35.544  0.00  0.00    -0.265 N 
ATOM     75  HE  ARG A   8     -19.209  22.161  36.223  0.00  0.00    +0.259 HD
ATOM     76  CZ  ARG A   8     -18.453  20.361  35.665  0.00  0.00    +0.342 C 
ATOM     77  NH2 ARG A   8     -19.009  19.677  36.626  0.00  0.00    -0.292 N 
ATOM     78 HH21 ARG A   8     -19.603  20.159  37.331  0.00  0.00    +0.255 HD
ATOM     79 HH22 ARG A   8     -18.858  18.650  36.688  0.00  0.00    +0.255 HD
ATOM     80  NH1 ARG A   8     -17.695  19.756  34.779  0.00  0.00    -0.292 N 
ATOM     81 HH11 ARG A   8     -17.543  18.729  34.840  0.00  0.00    +0.255 HD
ATOM     82 HH12 ARG A   8     -17.247  20.304  34.017  0.00  0.00    +0.255 HD
ENDBRANCH  73  74
ENDBRANCH  72  73
ENDBRANCH  71  72
ENDBRANCH  57  71
ENDBRANCH  55  57
ENDBRANCH  52  53
ENDBRANCH  49  52
ENDBRANCH  47  48
BRANCH  47  83
ATOM     83  CB  ILE A   6      -8.394  26.222  34.714  0.00  0.00    +0.027 C 
ATOM     84  CG2 ILE A   6      -9.333  26.809  35.778  0.00  0.00    +0.002 C 
BRANCH  83  85
ATOM     85  CG1 ILE A   6      -6.993  26.836  34.710  0.00  0.00    +0.002 C 
ATOM     86  CD1 ILE A   6      -6.324  26.922  36.084  0.00  0.00    +0.000 C 
ENDBRANCH  83  85
ENDBRANCH  47  83
ENDBRANCH   3  47
TORSDOF 32
REMARK  Name = ../refined-set-2016/1hvh/1hvh_pocket.pdb
REMARK  200 active torsions:
REMARK  status: ('A' for Active; 'I' for Inactive)
REMARK    1  A    between atoms: _1  and  _3
REMARK    2  A    between atoms: _3  and  _4
REMARK    3  A    between atoms: _3  and  _6
REMARK    4  A    between atoms: _6  and  _7
REMARK    5  A    between atoms: _7  and  _8
REMARK    6  A    between atoms: _8  and  _9
REMARK    7  A    between atoms: _18  and  _20
REMARK    8  A    between atoms: _20  and  _21
REMARK    9  A    between atoms: _20  and  _23
REMARK   10  A    between atoms: _23  and  _24
REMARK   11  A    between atoms: _27  and  _29
REMARK   12  A    between atoms: _29  and  _30
REMARK   13  A    between atoms: _29  and  _32
REMARK   14  A    between atoms: _32  and  _33
REMARK   15  A    between atoms: _36  and  _38
REMARK   16  A    between atoms: _38  and  _39
REMARK   17  A    between atoms: _38  and  _41
REMARK   18  A    between atoms: _41  and  _42
REMARK   19  A    between atoms: _45  and  _47
REMARK   20  A    between atoms: _47  and  _48
REMARK   21  A    between atoms: _47  and  _50
REMARK   22  A    between atoms: _50  and  _51
REMARK   23  A    between atoms: _54  and  _56
REMARK   24  A    between atoms: _56  and  _57
REMARK   25  A    between atoms: _59  and  _61
REMARK   26  A    between atoms: _61  and  _62
REMARK   27  A    between atoms: _65  and  _67
REMARK   28  A    between atoms: _67  and  _68
REMARK   29  A    between atoms: _67  and  _70
REMARK   30  A    between atoms: _70  and  _71
REMARK   31  A    between atoms: _74  and  _76
REMARK   32  A    between atoms: _76  and  _77
REMARK   33  A    between atoms: _76  and  _79
REMARK   34  A    between atoms: _79  and  _80
REMARK   35  A    between atoms: _83  and  _85
REMARK   36  A    between atoms: _85  and  _86
REMARK   37  A    between atoms: _85  and  _88
REMARK   38  A    between atoms: _88  and  _89
REMARK   39  A    between atoms: _92  and  _94
REMARK   40  A    between atoms: _94  and  _95
REMARK   41  A    between atoms: _94  and  _97
REMARK   42  A    between atoms: _100  and  _102
REMARK   43  A    between atoms: _102  and  _103
REMARK   44  A    between atoms: _102  and  _105
REMARK   45  A    between atoms: _105  and  _106
REMARK   46  A    between atoms: _109  and  _111
REMARK   47  A    between atoms: _111  and  _112
REMARK   48  A    between atoms: _111  and  _114
REMARK   49  A    between atoms: _114  and  _115
REMARK   50  A    between atoms: _118  and  _120
REMARK   51  A    between atoms: _120  and  _121
REMARK   52  A    between atoms: _123  and  _125
REMARK   53  A    between atoms: _125  and  _126
REMARK   54  A    between atoms: _128  and  _130
REMARK   55  A    between atoms: _130  and  _131
REMARK   56  A    between atoms: _130  and  _133
REMARK   57  A    between atoms: _133  and  _134
REMARK   58  A    between atoms: _137  and  _139
REMARK   59  A    between atoms: _139  and  _140
REMARK   60  A    between atoms: _142  and  _144
REMARK   61  A    between atoms: _144  and  _145
REMARK   62  A    between atoms: _147  and  _149
REMARK   63  A    between atoms: _149  and  _150
REMARK   64  A    between atoms: _149  and  _152
REMARK   65  A    between atoms: _152  and  _153
REMARK   66  A    between atoms: _156  and  _158
REMARK   67  A    between atoms: _158  and  _159
REMARK   68  A    between atoms: _158  and  _161
REMARK   69  A    between atoms: _161  and  _162
REMARK   70  A    between atoms: _165  and  _167
REMARK   71  A    between atoms: _167  and  _168
REMARK   72  A    between atoms: _167  and  _170
REMARK   73  A    between atoms: _170  and  _171
REMARK   74  A    between atoms: _175  and  _176
REMARK   75  A    between atoms: _181  and  _183
REMARK   76  A    between atoms: _183  and  _184
REMARK   77  A    between atoms: _183  and  _186
REMARK   78  A    between atoms: _189  and  _191
REMARK   79  A    between atoms: _191  and  _192
REMARK   80  A    between atoms: _191  and  _194
REMARK   81  A    between atoms: _194  and  _195
REMARK   82  A    between atoms: _200  and  _202
REMARK   83  A    between atoms: _202  and  _203
REMARK   84  A    between atoms: _202  and  _205
REMARK   85  A    between atoms: _205  and  _206
REMARK   86  A    between atoms: _209  and  _211
REMARK   87  A    between atoms: _211  and  _212
REMARK   88  A    between atoms: _211  and  _214
REMARK   89  A    between atoms: _214  and  _215
REMARK   90  A    between atoms: _218  and  _220
REMARK   91  A    between atoms: _220  and  _221
REMARK   92  A    between atoms: _223  and  _225
REMARK   93  A    between atoms: _225  and  _226
REMARK   94  A    between atoms: _225  and  _228
REMARK   95  A    between atoms: _228  and  _229
REMARK   96  A    between atoms: _229  and  _230
REMARK   97  A    between atoms: _230  and  _231
REMARK   98  A    between atoms: _240  and  _242
REMARK   99  A    between atoms: _242  and  _243
REMARK  100  A    between atoms: _242  and  _245
REMARK  101  A    between atoms: _245  and  _246
REMARK  102  A    between atoms: _251  and  _253
REMARK  103  A    between atoms: _253  and  _254
REMARK  104  A    between atoms: _253  and  _256
REMARK  105  A    between atoms: _256  and  _257
REMARK  106  A    between atoms: _257  and  _258
REMARK  107  A    between atoms: _258  and  _259
REMARK  108  A    between atoms: _268  and  _270
REMARK  109  A    between atoms: _270  and  _271
REMARK  110  A    between atoms: _270  and  _273
REMARK  111  A    between atoms: _273  and  _274
REMARK  112  A    between atoms: _277  and  _279
REMARK  113  A    between atoms: _279  and  _280
REMARK  114  A    between atoms: _279  and  _282
REMARK  115  A    between atoms: _282  and  _283
REMARK  116  A    between atoms: _286  and  _288
REMARK  117  A    between atoms: _288  and  _289
REMARK  118  A    between atoms: _288  and  _291
REMARK  119  A    between atoms: _291  and  _292
REMARK  120  A    between atoms: _295  and  _297
REMARK  121  A    between atoms: _297  and  _298
REMARK  122  A    between atoms: _297  and  _300
REMARK  123  A    between atoms: _300  and  _301
REMARK  124  A    between atoms: _304  and  _306
REMARK  125  A    between atoms: _306  and  _307
REMARK  126  A    between atoms: _309  and  _311
REMARK  127  A    between atoms: _311  and  _312
REMARK  128  A    between atoms: _315  and  _317
REMARK  129  A    between atoms: _317  and  _318
REMARK  130  A    between atoms: _317  and  _320
REMARK  131  A    between atoms: _320  and  _321
REMARK  132  A    between atoms: _324  and  _326
REMARK  133  A    between atoms: _326  and  _327
REMARK  134  A    between atoms: _326  and  _329
REMARK  135  A    between atoms: _329  and  _330
REMARK  136  A    between atoms: _333  and  _335
REMARK  137  A    between atoms: _335  and  _336
REMARK  138  A    between atoms: _335  and  _338
REMARK  139  A    between atoms: _338  and  _339
REMARK  140  A    between atoms: _342  and  _344
REMARK  141  A    between atoms: _344  and  _345
REMARK  142  A    between atoms: _344  and  _347
REMARK  143  A    between atoms: _350  and  _352
REMARK  144  A    between atoms: _352  and  _353
REMARK  145  A    between atoms: _352  and  _355
REMARK  146  A    between atoms: _355  and  _356
REMARK  147  A    between atoms: _356  and  _357
REMARK  148  A    between atoms: _359  and  _361
REMARK  149  A    between atoms: _361  and  _362
REMARK  150  A    between atoms: _361  and  _364
REMARK  151  A    between atoms: _364  and  _365
REMARK  152  A    between atoms: _368  and  _370
REMARK  153  A    between atoms: _370  and  _371
REMARK  154  A    between atoms: _373  and  _375
REMARK  155  A    between atoms: _375  and  _376
REMARK  156  A    between atoms: _378  and  _380
REMARK  157  A    between atoms: _380  and  _381
REMARK  158  A    between atoms: _380  and  _383
REMARK  159  A    between atoms: _383  and  _384
REMARK  160  A    between atoms: _387  and  _389
REMARK  161  A    between atoms: _389  and  _390
REMARK  162  A    between atoms: _392  and  _394
REMARK  163  A    between atoms: _394  and  _395
REMARK  164  A    between atoms: _397  and  _399
REMARK  165  A    between atoms: _399  and  _400
REMARK  166  A    between atoms: _399  and  _402
REMARK  167  A    between atoms: _402  and  _403
REMARK  168  A    between atoms: _409  and  _411
REMARK  169  A    between atoms: _411  and  _412
REMARK  170  A    between atoms: _411  and  _414
REMARK  171  A    between atoms: _414  and  _415
REMARK  172  A    between atoms: _418  and  _420
REMARK  173  A    between atoms: _420  and  _421
REMARK  174  A    between atoms: _420  and  _423
REMARK  175  A    between atoms: _423  and  _424
REMARK  176  A    between atoms: _428  and  _429
REMARK  177  A    between atoms: _434  and  _436
REMARK  178  A    between atoms: _436  and  _437
REMARK  179  A    between atoms: _436  and  _439
REMARK  180  A    between atoms: _439  and  _440
REMARK  181  A    between atoms: _444  and  _445
REMARK  182  A    between atoms: _450  and  _452
REMARK  183  A    between atoms: _452  and  _453
REMARK  184  A    between atoms: _452  and  _455
REMARK  185  A    between atoms: _458  and  _460
REMARK  186  A    between atoms: _460  and  _461
REMARK  187  A    between atoms: _460  and  _463
REMARK  188  A    between atoms: _463  and  _464
REMARK  189  A    between atoms: _469  and  _471
REMARK  190  A    between atoms: _471  and  _472
REMARK  191  A    between atoms: _471  and  _474
REMARK  192  A    between atoms: _474  and  _475
REMARK  193  A    between atoms: _478  and  _480
REMARK  194  A    between atoms: _480  and  _481
REMARK  195  A    between atoms: _483  and  _485
REMARK  196  A    between atoms: _485  and  _486
REMARK  197  A    between atoms: _485  and  _488
REMARK  198  A    between atoms: _488  and  _489
REMARK  199  A    between atoms: _489  and  _490
REMARK  200  A    between atoms: _490  and  _491
REMARK                            x       y       z     vdW  Elec       q    Type
REMARK                         _______ _______ _______ _____ _____    ______ ____
ROOT
ATOM      1  NE  ARG A   1     -18.874  15.768  33.055  0.00  0.00    -0.265 N 
ATOM      2  HE  ARG A   1     -18.174  16.519  33.221  0.00  0.00    +0.259 HD
ATOM      3  CZ  ARG A   1     -18.403  14.574  32.651  0.00  0.00    +0.342 C 
ATOM      4  NH2 ARG A   1     -17.099  14.361  32.472  0.00  0.00    -0.292 N 
ATOM      5 HH21 ARG A   1     -16.418  15.128  32.645  0.00  0.00    +0.255 HD
ATOM      6 HH22 ARG A   1     -16.763  13.428  32.159  0.00  0.00    +0.255 HD
ATOM      7  NH1 ARG A   1     -19.242  13.555  32.425  0.00  0.00    -0.292 N 
ATOM      8 HH11 ARG A   1     -20.265  13.684  32.562  0.00  0.00    +0.255 HD
ATOM      9 HH12 ARG A   1     -18.871  12.635  32.113  0.00  0.00    +0.255 HD
ENDROOT
BRANCH   1  10
ATOM     10  CD  ARG A   1     -20.288  16.112  33.285  0.00  0.00    +0.174 C 
BRANCH  10  11
ATOM     11  CG  ARG A   1     -20.506  17.564  33.713  0.00  0.00    +0.045 C 
BRANCH  11  12
ATOM     12  CB  ARG A   1     -21.383  18.355  32.748  0.00  0.00    +0.029 C 
BRANCH  12  13
ATOM     13  CA  ARG A   1     -21.343  19.850  32.995  0.00  0.00    +0.133 C 
BRANCH  13  14
ATOM     14  N   ARG A   1     -21.873  20.152  34.323  0.00  0.00    -0.239 NA
ATOM     15  H   ARG A   1     -22.100  19.359  34.957  0.00  0.00    +0.142 HD
ENDBRANCH  13  14
BRANCH  13  16
ATOM     16  C   ARG A   1     -22.126  20.567  31.907  0.00  0.00    +0.224 C 
ATOM     17  O   ARG A   1     -23.348  20.516  31.941  0.00  0.00    -0.287 OA
ENDBRANCH  13  16
ENDBRANCH  12  13
ENDBRANCH  11  12
ENDBRANCH  10  11
ENDBRANCH   1  10
TORSDOF 6
REMARK  Name = ../refined-set-2016/1hvh/1hvh_pocket.pdb
REMARK  200 active torsions:
REMARK  status: ('A' for Active; 'I' for Inactive)
REMARK    1  A    between atoms: _1  and  _3
REMARK    2  A    between atoms: _3  and  _4
REMARK    3  A    between atoms: _3  and  _6
REMARK    4  A    between atoms: _6  and  _7
REMARK    5  A    between atoms: _7  and  _8
REMARK    6  A    between atoms: _8  and  _9
REMARK    7  A    between atoms: _18  and  _20
REMARK    8  A    between atoms: _20  and  _21
REMARK    9  A    between atoms: _20  and  _23
REMARK   10  A    between atoms: _23  and  _24
REMARK   11  A    between atoms: _27  and  _29
REMARK   12  A    between atoms: _29  and  _30
REMARK   13  A    between atoms: _29  and  _32
REMARK   14  A    between atoms: _32  and  _33
REMARK   15  A    between atoms: _36  and  _38
REMARK   16  A    between atoms: _38  and  _39
REMARK   17  A    between atoms: _38  and  _41
REMARK   18  A    between atoms: _41  and  _42
REMARK   19  A    between atoms: _45  and  _47
REMARK   20  A    between atoms: _47  and  _48
REMARK   21  A    between atoms: _47  and  _50
REMARK   22  A    between atoms: _50  and  _51
REMARK   23  A    between atoms: _54  and  _56
REMARK   24  A    between atoms: _56  and  _57
REMARK   25  A    between atoms: _59  and  _61
REMARK   26  A    between atoms: _61  and  _62
REMARK   27  A    between atoms: _65  and  _67
REMARK   28  A    between atoms: _67  and  _68
REMARK   29  A    between atoms: _67  and  _70
REMARK   30  A    between atoms: _70  and  _71
REMARK   31  A    between atoms: _74  and  _76
REMARK   32  A    between atoms: _76  and  _77
REMARK   33  A    between atoms: _76  and  _79
REMARK   34  A    between atoms: _79  and  _80
REMARK   35  A    between atoms: _83  and  _85
REMARK   36  A    between atoms: _85  and  _86
REMARK   37  A    between atoms: _85  and  _88
REMARK   38  A    between atoms: _88  and  _89
REMARK   39  A    between atoms: _92  and  _94
REMARK   40  A    between atoms: _94  and  _95
REMARK   41  A    between atoms: _94  and  _97
REMARK   42  A    between atoms: _100  and  _102
REMARK   43  A    between atoms: _102  and  _103
REMARK   44  A    between atoms: _102  and  _105
REMARK   45  A    between atoms: _105  and  _106
REMARK   46  A    between atoms: _109  and  _111
REMARK   47  A    between atoms: _111  and  _112
REMARK   48  A    between atoms: _111  and  _114
REMARK   49  A    between atoms: _114  and  _115
REMARK   50  A    between atoms: _118  and  _120
REMARK   51  A    between atoms: _120  and  _121
REMARK   52  A    between atoms: _123  and  _125
REMARK   53  A    between atoms: _125  and  _126
REMARK   54  A    between atoms: _128  and  _130
REMARK   55  A    between atoms: _130  and  _131
REMARK   56  A    between atoms: _130  and  _133
REMARK   57  A    between atoms: _133  and  _134
REMARK   58  A    between atoms: _137  and  _139
REMARK   59  A    between atoms: _139  and  _140
REMARK   60  A    between atoms: _142  and  _144
REMARK   61  A    between atoms: _144  and  _145
REMARK   62  A    between atoms: _147  and  _149
REMARK   63  A    between atoms: _149  and  _150
REMARK   64  A    between atoms: _149  and  _152
REMARK   65  A    between atoms: _152  and  _153
REMARK   66  A    between atoms: _156  and  _158
REMARK   67  A    between atoms: _158  and  _159
REMARK   68  A    between atoms: _158  and  _161
REMARK   69  A    between atoms: _161  and  _162
REMARK   70  A    between atoms: _165  and  _167
REMARK   71  A    between atoms: _167  and  _168
REMARK   72  A    between atoms: _167  and  _170
REMARK   73  A    between atoms: _170  and  _171
REMARK   74  A    between atoms: _175  and  _176
REMARK   75  A    between atoms: _181  and  _183
REMARK   76  A    between atoms: _183  and  _184
REMARK   77  A    between atoms: _183  and  _186
REMARK   78  A    between atoms: _189  and  _191
REMARK   79  A    between atoms: _191  and  _192
REMARK   80  A    between atoms: _191  and  _194
REMARK   81  A    between atoms: _194  and  _195
REMARK   82  A    between atoms: _200  and  _202
REMARK   83  A    between atoms: _202  and  _203
REMARK   84  A    between atoms: _202  and  _205
REMARK   85  A    between atoms: _205  and  _206
REMARK   86  A    between atoms: _209  and  _211
REMARK   87  A    between atoms: _211  and  _212
REMARK   88  A    between atoms: _211  and  _214
REMARK   89  A    between atoms: _214  and  _215
REMARK   90  A    between atoms: _218  and  _220
REMARK   91  A    between atoms: _220  and  _221
REMARK   92  A    between atoms: _223  and  _225
REMARK   93  A    between atoms: _225  and  _226
REMARK   94  A    between atoms: _225  and  _228
REMARK   95  A    between atoms: _228  and  _229
REMARK   96  A    between atoms: _229  and  _230
REMARK   97  A    between atoms: _230  and  _231
REMARK   98  A    between atoms: _240  and  _242
REMARK   99  A    between atoms: _242  and  _243
REMARK  100  A    between atoms: _242  and  _245
REMARK  101  A    between atoms: _245  and  _246
REMARK  102  A    between atoms: _251  and  _253
REMARK  103  A    between atoms: _253  and  _254
REMARK  104  A    between atoms: _253  and  _256
REMARK  105  A    between atoms: _256  and  _257
REMARK  106  A    between atoms: _257  and  _258
REMARK  107  A    between atoms: _258  and  _259
REMARK  108  A    between atoms: _268  and  _270
REMARK  109  A    between atoms: _270  and  _271
REMARK  110  A    between atoms: _270  and  _273
REMARK  111  A    between atoms: _273  and  _274
REMARK  112  A    between atoms: _277  and  _279
REMARK  113  A    between atoms: _279  and  _280
REMARK  114  A    between atoms: _279  and  _282
REMARK  115  A    between atoms: _282  and  _283
REMARK  116  A    between atoms: _286  and  _288
REMARK  117  A    between atoms: _288  and  _289
REMARK  118  A    between atoms: _288  and  _291
REMARK  119  A    between atoms: _291  and  _292
REMARK  120  A    between atoms: _295  and  _297
REMARK  121  A    between atoms: _297  and  _298
REMARK  122  A    between atoms: _297  and  _300
REMARK  123  A    between atoms: _300  and  _301
REMARK  124  A    between atoms: _304  and  _306
REMARK  125  A    between atoms: _306  and  _307
REMARK  126  A    between atoms: _309  and  _311
REMARK  127  A    between atoms: _311  and  _312
REMARK  128  A    between atoms: _315  and  _317
REMARK  129  A    between atoms: _317  and  _318
REMARK  130  A    between atoms: _317  and  _320
REMARK  131  A    between atoms: _320  and  _321
REMARK  132  A    between atoms: _324  and  _326
REMARK  133  A    between atoms: _326  and  _327
REMARK  134  A    between atoms: _326  and  _329
REMARK  135  A    between atoms: _329  and  _330
REMARK  136  A    between atoms: _333  and  _335
REMARK  137  A    between atoms: _335  and  _336
REMARK  138  A    between atoms: _335  and  _338
REMARK  139  A    between atoms: _338  and  _339
REMARK  140  A    between atoms: _342  and  _344
REMARK  141  A    between atoms: _344  and  _345
REMARK  142  A    between atoms: _344  and  _347
REMARK  143  A    between atoms: _350  and  _352
REMARK  144  A    between atoms: _352  and  _353
REMARK  145  A    between atoms: _352  and  _355
REMARK  146  A    between atoms: _355  and  _356
REMARK  147  A    between atoms: _356  and  _357
REMARK  148  A    between atoms: _359  and  _361
REMARK  149  A    between atoms: _361  and  _362
REMARK  150  A    between atoms: _361  and  _364
REMARK  151  A    between atoms: _364  and  _365
REMARK  152  A    between atoms: _368  and  _370
REMARK  153  A    between atoms: _370  and  _371
REMARK  154  A    between atoms: _373  and  _375
REMARK  155  A    between atoms: _375  and  _376
REMARK  156  A    between atoms: _378  and  _380
REMARK  157  A    between atoms: _380  and  _381
REMARK  158  A    between atoms: _380  and  _383
REMARK  159  A    between atoms: _383  and  _384
REMARK  160  A    between atoms: _387  and  _389
REMARK  161  A    between atoms: _389  and  _390
REMARK  162  A    between atoms: _392  and  _394
REMARK  163  A    between atoms: _394  and  _395
REMARK  164  A    between atoms: _397  and  _399
REMARK  165  A    between atoms: _399  and  _400
REMARK  166  A    between atoms: _399  and  _402
REMARK  167  A    between atoms: _402  and  _403
REMARK  168  A    between atoms: _409  and  _411
REMARK  169  A    between atoms: _411  and  _412
REMARK  170  A    between atoms: _411  and  _414
REMARK  171  A    between atoms: _414  and  _415
REMARK  172  A    between atoms: _418  and  _420
REMARK  173  A    between atoms: _420  and  _421
REMARK  174  A    between atoms: _420  and  _423
REMARK  175  A    between atoms: _423  and  _424
REMARK  176  A    between atoms: _428  and  _429
REMARK  177  A    between atoms: _434  and  _436
REMARK  178  A    between atoms: _436  and  _437
REMARK  179  A    between atoms: _436  and  _439
REMARK  180  A    between atoms: _439  and  _440
REMARK  181  A    between atoms: _444  and  _445
REMARK  182  A    between atoms: _450  and  _452
REMARK  183  A    between atoms: _452  and  _453
REMARK  184  A    between atoms: _452  and  _455
REMARK  185  A    between atoms: _458  and  _460
REMARK  186  A    between atoms: _460  and  _461
REMARK  187  A    between atoms: _460  and  _463
REMARK  188  A    between atoms: _463  and  _464
REMARK  189  A    between atoms: _469  and  _471
REMARK  190  A    between atoms: _471  and  _472
REMARK  191  A    between atoms: _471  and  _474
REMARK  192  A    between atoms: _474  and  _475
REMARK  193  A    between atoms: _478  and  _480
REMARK  194  A    between atoms: _480  and  _481
REMARK  195  A    between atoms: _483  and  _485
REMARK  196  A    between atoms: _485  and  _486
REMARK  197  A    between atoms: _485  and  _488
REMARK  198  A    between atoms: _488  and  _489
REMARK  199  A    between atoms: _489  and  _490
REMARK  200  A    between atoms: _490  and  _491
REMARK                            x       y       z     vdW  Elec       q    Type
REMARK                         _______ _______ _______ _____ _____    ______ ____
ROOT
ATOM      1  C   GLY A   5      -9.654  21.949  24.928  0.00  0.00    +0.243 C 
ATOM      2  O   GLY A   5      -8.498  21.557  24.784  0.00  0.00    -0.273 OA
ATOM      3  N   ALA A   6     -10.647  21.530  24.127  0.00  0.00    -0.297 N 
ATOM      4  H   ALA A   6     -11.602  21.898  24.311  0.00  0.00    +0.150 HD
ENDROOT
BRANCH   3   5
ATOM      5  CA  ALA A   6     -10.485  20.595  23.015  0.00  0.00    +0.149 C 
ATOM      6  CB  ALA A   6     -11.625  19.570  22.981  0.00  0.00    +0.031 C 
BRANCH   5   7
ATOM      7  C   ALA A   6     -10.406  21.340  21.680  0.00  0.00    +0.241 C 
ATOM      8  O   ALA A   6     -11.336  22.036  21.261  0.00  0.00    -0.273 OA
ATOM      9  N   ASP A   7      -9.273  21.178  20.992  0.00  0.00    -0.297 N 
ATOM     10  H   ASP A   7      -8.519  20.581  21.388  0.00  0.00    +0.150 HD
BRANCH   9  11
ATOM     11  CA  ASP A   7      -9.069  21.823  19.690  0.00  0.00    +0.160 C 
BRANCH  11  12
ATOM     12  C   ASP A   7     -10.042  21.328  18.687  0.00  0.00    +0.241 C 
ATOM     13  N   ASP A   8     -10.242  20.004  18.751  0.00  0.00    -0.297 N 
ATOM     14  H   ASP A   8      -9.737  19.495  19.504  0.00  0.00    +0.150 HD
ATOM     15  O   ASP A   7     -10.610  22.149  17.981  0.00  0.00    -0.273 OA
BRANCH  13  16
ATOM     16  CA  ASP A   8     -11.078  19.211  17.893  0.00  0.00    +0.160 C 
BRANCH  16  17
ATOM     17  C   ASP A   8     -12.259  18.566  18.570  0.00  0.00    +0.241 C 
ATOM     18  O   ASP A   8     -12.346  18.467  19.773  0.00  0.00    -0.273 OA
ATOM     19  N   THR A   9     -13.158  18.079  17.725  0.00  0.00    -0.295 N 
ATOM     20  H   THR A   9     -12.980  18.184  16.706  0.00  0.00    +0.150 HD
BRANCH  19  21
ATOM     21  CA  THR A   9     -14.364  17.415  18.138  0.00  0.00    +0.176 C 
BRANCH  21  22
ATOM     22  C   THR A   9     -14.153  15.938  17.981  0.00  0.00    +0.243 C 
ATOM     23  N   VAL A  10     -14.442  15.235  19.052  0.00  0.00    -0.298 N 
ATOM     24  H   VAL A  10     -14.785  15.740  19.894  0.00  0.00    +0.150 HD
ATOM     25  O   THR A   9     -13.741  15.462  16.924  0.00  0.00    -0.273 OA
BRANCH  23  26
ATOM     26  CA  VAL A  10     -14.310  13.797  19.125  0.00  0.00    +0.137 C 
BRANCH  26  27
ATOM     27  CB  VAL A  10     -13.177  13.408  20.039  0.00  0.00    +0.026 C 
ATOM     28  CG2 VAL A  10     -12.841  11.922  19.858  0.00  0.00    +0.002 C 
ATOM     29  CG1 VAL A  10     -11.991  14.314  19.760  0.00  0.00    +0.002 C 
ENDBRANCH  26  27
BRANCH  26  30
ATOM     30  C   VAL A  10     -15.556  13.142  19.678  0.00  0.00    +0.227 C 
ATOM     31  O   VAL A  10     -15.882  13.322  20.841  0.00  0.00    -0.286 OA
ENDBRANCH  26  30
ENDBRANCH  23  26
ENDBRANCH  21  22
BRANCH  21  32
ATOM     32  CB  THR A   9     -15.553  17.855  17.262  0.00  0.00    +0.137 C 
ATOM     33  CG2 THR A   9     -16.780  17.010  17.555  0.00  0.00    +0.034 C 
BRANCH  32  34
ATOM     34  OG1 THR A   9     -15.827  19.235  17.441  0.00  0.00    -0.382 OA
ATOM     35  HG1 THR A   9     -15.030  19.764  17.187  0.00  0.00    +0.210 HD
ENDBRANCH  32  34
ENDBRANCH  21  32
ENDBRANCH  19  21
ENDBRANCH  16  17
BRANCH  16  36
ATOM     36  CB  ASP A   8     -10.232  18.028  17.402  0.00  0.00    +0.143 C 
BRANCH  36  37
ATOM     37  CG  ASP A   8      -9.019  18.452  16.636  0.00  0.00    +0.367 C 
ATOM     38  OD2 ASP A   8      -7.909  17.950  17.127  0.00  0.00    -0.246 OA
ATOM     39  OD1 ASP A   8      -9.071  19.177  15.662  0.00  0.00    -0.246 OA
ENDBRANCH  36  37
ENDBRANCH  16  36
ENDBRANCH  13  16
ENDBRANCH  11  12
BRANCH  11  40
ATOM     40  CB  ASP A   7      -7.636  21.647  19.167  0.00  0.00    +0.143 C 
BRANCH  40  41
ATOM     41  CG  ASP A   7      -6.689  21.895  20.309  0.00  0.00    +0.367 C 
ATOM     42  OD2 ASP A   7      -6.292  20.797  20.930  0.00  0.00    -0.246 OA
ATOM     43  OD1 ASP A   7      -6.448  23.017  20.697  0.00  0.00    -0.246 OA
ENDBRANCH  40  41
ENDBRANCH  11  40
ENDBRANCH   9  11
ENDBRANCH   5   7
ENDBRANCH   3   5
BRANCH   1  44
ATOM     44  CA  GLY A   5     -10.013  22.915  26.070  0.00  0.00    +0.176 C 
BRANCH  44  46
ATOM     45  C   THR A   4     -11.732  24.413  25.421  0.00  0.00    +0.243 C 
ATOM     46  N   GLY A   5     -11.394  23.359  26.108  0.00  0.00    -0.295 N 
ATOM     47  H   GLY A   5     -12.100  22.846  26.673  0.00  0.00    +0.150 HD
ATOM     48  O   THR A   4     -10.939  25.042  24.780  0.00  0.00    -0.273 OA
BRANCH  45  49
ATOM     49  CA  THR A   4     -13.131  24.892  25.472  0.00  0.00    +0.176 C 
BRANCH  49  51
ATOM     50  C   ASP A   3     -14.231  22.819  25.244  0.00  0.00    +0.241 C 
ATOM     51  N   THR A   4     -14.065  23.922  25.948  0.00  0.00    -0.295 N 
ATOM     52  H   THR A   4     -14.600  24.081  26.826  0.00  0.00    +0.150 HD
ATOM     53  O   ASP A   3     -13.584  22.562  24.246  0.00  0.00    -0.273 OA
BRANCH  50  54
ATOM     54  CA  ASP A   3     -15.226  21.837  25.747  0.00  0.00    +0.160 C 
BRANCH  54  57
ATOM     55  C   LEU A   2     -17.529  21.890  25.799  0.00  0.00    +0.241 C 
ATOM     56  O   LEU A   2     -17.441  21.926  27.011  0.00  0.00    -0.273 OA
ATOM     57  N   ASP A   3     -16.466  21.873  25.042  0.00  0.00    -0.297 N 
ATOM     58  H   ASP A   3     -16.519  21.885  24.003  0.00  0.00    +0.150 HD
BRANCH  55  59
ATOM     59  CA  LEU A   2     -18.887  21.818  25.182  0.00  0.00    +0.149 C 
BRANCH  59  61
ATOM     60  C   LEU A   1     -19.096  19.404  25.466  0.00  0.00    +0.238 C 
ATOM     61  N   LEU A   2     -19.486  20.644  25.794  0.00  0.00    -0.297 N 
ATOM     62  H   LEU A   2     -20.236  20.769  26.504  0.00  0.00    +0.150 HD
ATOM     63  O   LEU A   1     -18.258  19.160  24.581  0.00  0.00    -0.274 OA
BRANCH  60  64
ATOM     64  CA  LEU A   1     -19.779  18.274  26.225  0.00  0.00    +0.145 C 
BRANCH  64  65
ATOM     65  N   LEU A   1     -20.424  17.396  25.287  0.00  0.00    -0.238 NA
ATOM     66  H   LEU A   1     -19.821  16.693  24.814  0.00  0.00    +0.142 HD
ENDBRANCH  64  65
BRANCH  64  67
ATOM     67  CB  LEU A   1     -18.674  17.376  26.848  0.00  0.00    +0.026 C 
BRANCH  67  68
ATOM     68  CG  LEU A   1     -18.260  17.432  28.326  0.00  0.00    +0.002 C 
ATOM     69  CD2 LEU A   1     -19.168  18.184  29.308  0.00  0.00    +0.000 C 
ATOM     70  CD1 LEU A   1     -16.817  17.880  28.384  0.00  0.00    +0.000 C 
ENDBRANCH  67  68
ENDBRANCH  64  67
ENDBRANCH  60  64
ENDBRANCH  59  61
BRANCH  59  71
ATOM     71  CB  LEU A   2     -19.640  23.066  25.616  0.00  0.00    +0.029 C 
BRANCH  71  72
ATOM     72  CG  LEU A   2     -20.804  23.419  24.712  0.00  0.00    +0.002 C 
ATOM     73  CD2 LEU A   2     -21.942  23.920  25.593  0.00  0.00    +0.000 C 
ATOM     74  CD1 LEU A   2     -21.192  22.237  23.809  0.00  0.00    +0.000 C 
ENDBRANCH  71  72
ENDBRANCH  59  71
ENDBRANCH  55  59
ENDBRANCH  54  57
BRANCH  54  75
ATOM     75  CB  ASP A   3     -14.673  20.436  25.572  0.00  0.00    +0.143 C 
BRANCH  75  76
ATOM     76  CG  ASP A   3     -13.463  20.223  26.396  0.00  0.00    +0.367 C 
ATOM     77  OD2 ASP A   3     -12.909  21.093  27.017  0.00  0.00    -0.246 OA
ATOM     78  OD1 ASP A   3     -13.099  18.989  26.441  0.00  0.00    -0.246 OA
ENDBRANCH  75  76
ENDBRANCH  54  75
ENDBRANCH  50  54
ENDBRANCH  49  51
BRANCH  49  79
ATOM     79  CB  THR A   4     -13.144  26.121  26.341  0.00  0.00    +0.137 C 
ATOM     80  CG2 THR A   4     -14.519  26.758  26.231  0.00  0.00    +0.034 C 
BRANCH  79  81
ATOM     81  OG1 THR A   4     -12.893  25.718  27.670  0.00  0.00    -0.382 OA
ATOM     82  HG1 THR A   4     -12.009  25.274  27.718  0.00  0.00    +0.210 HD
ENDBRANCH  79  81
ENDBRANCH  49  79
ENDBRANCH  45  49
ENDBRANCH  44  46
ENDBRANCH   1  44
TORSDOF 35
REMARK  Name = ../refined-set-2016/1hvh/1hvh_pocket.pdb
REMARK  200 active torsions:
REMARK  status: ('A' for Active; 'I' for Inactive)
REMARK    1  A    between atoms: _1  and  _3
REMARK    2  A    between atoms: _3  and  _4
REMARK    3  A    between atoms: _3  and  _6
REMARK    4  A    between atoms: _6  and  _7
REMARK    5  A    between atoms: _7  and  _8
REMARK    6  A    between atoms: _8  and  _9
REMARK    7  A    between atoms: _18  and  _20
REMARK    8  A    between atoms: _20  and  _21
REMARK    9  A    between atoms: _20  and  _23
REMARK   10  A    between atoms: _23  and  _24
REMARK   11  A    between atoms: _27  and  _29
REMARK   12  A    between atoms: _29  and  _30
REMARK   13  A    between atoms: _29  and  _32
REMARK   14  A    between atoms: _32  and  _33
REMARK   15  A    between atoms: _36  and  _38
REMARK   16  A    between atoms: _38  and  _39
REMARK   17  A    between atoms: _38  and  _41
REMARK   18  A    between atoms: _41  and  _42
REMARK   19  A    between atoms: _45  and  _47
REMARK   20  A    between atoms: _47  and  _48
REMARK   21  A    between atoms: _47  and  _50
REMARK   22  A    between atoms: _50  and  _51
REMARK   23  A    between atoms: _54  and  _56
REMARK   24  A    between atoms: _56  and  _57
REMARK   25  A    between atoms: _59  and  _61
REMARK   26  A    between atoms: _61  and  _62
REMARK   27  A    between atoms: _65  and  _67
REMARK   28  A    between atoms: _67  and  _68
REMARK   29  A    between atoms: _67  and  _70
REMARK   30  A    between atoms: _70  and  _71
REMARK   31  A    between atoms: _74  and  _76
REMARK   32  A    between atoms: _76  and  _77
REMARK   33  A    between atoms: _76  and  _79
REMARK   34  A    between atoms: _79  and  _80
REMARK   35  A    between atoms: _83  and  _85
REMARK   36  A    between atoms: _85  and  _86
REMARK   37  A    between atoms: _85  and  _88
REMARK   38  A    between atoms: _88  and  _89
REMARK   39  A    between atoms: _92  and  _94
REMARK   40  A    between atoms: _94  and  _95
REMARK   41  A    between atoms: _94  and  _97
REMARK   42  A    between atoms: _100  and  _102
REMARK   43  A    between atoms: _102  and  _103
REMARK   44  A    between atoms: _102  and  _105
REMARK   45  A    between atoms: _105  and  _106
REMARK   46  A    between atoms: _109  and  _111
REMARK   47  A    between atoms: _111  and  _112
REMARK   48  A    between atoms: _111  and  _114
REMARK   49  A    between atoms: _114  and  _115
REMARK   50  A    between atoms: _118  and  _120
REMARK   51  A    between atoms: _120  and  _121
REMARK   52  A    between atoms: _123  and  _125
REMARK   53  A    between atoms: _125  and  _126
REMARK   54  A    between atoms: _128  and  _130
REMARK   55  A    between atoms: _130  and  _131
REMARK   56  A    between atoms: _130  and  _133
REMARK   57  A    between atoms: _133  and  _134
REMARK   58  A    between atoms: _137  and  _139
REMARK   59  A    between atoms: _139  and  _140
REMARK   60  A    between atoms: _142  and  _144
REMARK   61  A    between atoms: _144  and  _145
REMARK   62  A    between atoms: _147  and  _149
REMARK   63  A    between atoms: _149  and  _150
REMARK   64  A    between atoms: _149  and  _152
REMARK   65  A    between atoms: _152  and  _153
REMARK   66  A    between atoms: _156  and  _158
REMARK   67  A    between atoms: _158  and  _159
REMARK   68  A    between atoms: _158  and  _161
REMARK   69  A    between atoms: _161  and  _162
REMARK   70  A    between atoms: _165  and  _167
REMARK   71  A    between atoms: _167  and  _168
REMARK   72  A    between atoms: _167  and  _170
REMARK   73  A    between atoms: _170  and  _171
REMARK   74  A    between atoms: _175  and  _176
REMARK   75  A    between atoms: _181  and  _183
REMARK   76  A    between atoms: _183  and  _184
REMARK   77  A    between atoms: _183  and  _186
REMARK   78  A    between atoms: _189  and  _191
REMARK   79  A    between atoms: _191  and  _192
REMARK   80  A    between atoms: _191  and  _194
REMARK   81  A    between atoms: _194  and  _195
REMARK   82  A    between atoms: _200  and  _202
REMARK   83  A    between atoms: _202  and  _203
REMARK   84  A    between atoms: _202  and  _205
REMARK   85  A    between atoms: _205  and  _206
REMARK   86  A    between atoms: _209  and  _211
REMARK   87  A    between atoms: _211  and  _212
REMARK   88  A    between atoms: _211  and  _214
REMARK   89  A    between atoms: _214  and  _215
REMARK   90  A    between atoms: _218  and  _220
REMARK   91  A    between atoms: _220  and  _221
REMARK   92  A    between atoms: _223  and  _225
REMARK   93  A    between atoms: _225  and  _226
REMARK   94  A    between atoms: _225  and  _228
REMARK   95  A    between atoms: _228  and  _229
REMARK   96  A    between atoms: _229  and  _230
REMARK   97  A    between atoms: _230  and  _231
REMARK   98  A    between atoms: _240  and  _242
REMARK   99  A    between atoms: _242  and  _243
REMARK  100  A    between atoms: _242  and  _245
REMARK  101  A    between atoms: _245  and  _246
REMARK  102  A    between atoms: _251  and  _253
REMARK  103  A    between atoms: _253  and  _254
REMARK  104  A    between atoms: _253  and  _256
REMARK  105  A    between atoms: _256  and  _257
REMARK  106  A    between atoms: _257  and  _258
REMARK  107  A    between atoms: _258  and  _259
REMARK  108  A    between atoms: _268  and  _270
REMARK  109  A    between atoms: _270  and  _271
REMARK  110  A    between atoms: _270  and  _273
REMARK  111  A    between atoms: _273  and  _274
REMARK  112  A    between atoms: _277  and  _279
REMARK  113  A    between atoms: _279  and  _280
REMARK  114  A    between atoms: _279  and  _282
REMARK  115  A    between atoms: _282  and  _283
REMARK  116  A    between atoms: _286  and  _288
REMARK  117  A    between atoms: _288  and  _289
REMARK  118  A    between atoms: _288  and  _291
REMARK  119  A    between atoms: _291  and  _292
REMARK  120  A    between atoms: _295  and  _297
REMARK  121  A    between atoms: _297  and  _298
REMARK  122  A    between atoms: _297  and  _300
REMARK  123  A    between atoms: _300  and  _301
REMARK  124  A    between atoms: _304  and  _306
REMARK  125  A    between atoms: _306  and  _307
REMARK  126  A    between atoms: _309  and  _311
REMARK  127  A    between atoms: _311  and  _312
REMARK  128  A    between atoms: _315  and  _317
REMARK  129  A    between atoms: _317  and  _318
REMARK  130  A    between atoms: _317  and  _320
REMARK  131  A    between atoms: _320  and  _321
REMARK  132  A    between atoms: _324  and  _326
REMARK  133  A    between atoms: _326  and  _327
REMARK  134  A    between atoms: _326  and  _329
REMARK  135  A    between atoms: _329  and  _330
REMARK  136  A    between atoms: _333  and  _335
REMARK  137  A    between atoms: _335  and  _336
REMARK  138  A    between atoms: _335  and  _338
REMARK  139  A    between atoms: _338  and  _339
REMARK  140  A    between atoms: _342  and  _344
REMARK  141  A    between atoms: _344  and  _345
REMARK  142  A    between atoms: _344  and  _347
REMARK  143  A    between atoms: _350  and  _352
REMARK  144  A    between atoms: _352  and  _353
REMARK  145  A    between atoms: _352  and  _355
REMARK  146  A    between atoms: _355  and  _356
REMARK  147  A    between atoms: _356  and  _357
REMARK  148  A    between atoms: _359  and  _361
REMARK  149  A    between atoms: _361  and  _362
REMARK  150  A    between atoms: _361  and  _364
REMARK  151  A    between atoms: _364  and  _365
REMARK  152  A    between atoms: _368  and  _370
REMARK  153  A    between atoms: _370  and  _371
REMARK  154  A    between atoms: _373  and  _375
REMARK  155  A    between atoms: _375  and  _376
REMARK  156  A    between atoms: _378  and  _380
REMARK  157  A    between atoms: _380  and  _381
REMARK  158  A    between atoms: _380  and  _383
REMARK  159  A    between atoms: _383  and  _384
REMARK  160  A    between atoms: _387  and  _389
REMARK  161  A    between atoms: _389  and  _390
REMARK  162  A    between atoms: _392  and  _394
REMARK  163  A    between atoms: _394  and  _395
REMARK  164  A    between atoms: _397  and  _399
REMARK  165  A    between atoms: _399  and  _400
REMARK  166  A    between atoms: _399  and  _402
REMARK  167  A    between atoms: _402  and  _403
REMARK  168  A    between atoms: _409  and  _411
REMARK  169  A    between atoms: _411  and  _412
REMARK  170  A    between atoms: _411  and  _414
REMARK  171  A    between atoms: _414  and  _415
REMARK  172  A    between atoms: _418  and  _420
REMARK  173  A    between atoms: _420  and  _421
REMARK  174  A    between atoms: _420  and  _423
REMARK  175  A    between atoms: _423  and  _424
REMARK  176  A    between atoms: _428  and  _429
REMARK  177  A    between atoms: _434  and  _436
REMARK  178  A    between atoms: _436  and  _437
REMARK  179  A    between atoms: _436  and  _439
REMARK  180  A    between atoms: _439  and  _440
REMARK  181  A    between atoms: _444  and  _445
REMARK  182  A    between atoms: _450  and  _452
REMARK  183  A    between atoms: _452  and  _453
REMARK  184  A    between atoms: _452  and  _455
REMARK  185  A    between atoms: _458  and  _460
REMARK  186  A    between atoms: _460  and  _461
REMARK  187  A    between atoms: _460  and  _463
REMARK  188  A    between atoms: _463  and  _464
REMARK  189  A    between atoms: _469  and  _471
REMARK  190  A    between atoms: _471  and  _472
REMARK  191  A    between atoms: _471  and  _474
REMARK  192  A    between atoms: _474  and  _475
REMARK  193  A    between atoms: _478  and  _480
REMARK  194  A    between atoms: _480  and  _481
REMARK  195  A    between atoms: _483  and  _485
REMARK  196  A    between atoms: _485  and  _486
REMARK  197  A    between atoms: _485  and  _488
REMARK  198  A    between atoms: _488  and  _489
REMARK  199  A    between atoms: _489  and  _490
REMARK  200  A    between atoms: _490  and  _491
REMARK                            x       y       z     vdW  Elec       q    Type
REMARK                         _______ _______ _______ _____ _____    ______ ____
ROOT
ATOM      1  CA  ILE A   5      -3.353  12.322  29.076  0.00  0.00    +0.149 C 
ENDROOT
BRANCH   1   3
ATOM      2  C   GLY A   4      -3.210  12.735  26.706  0.00  0.00    +0.243 C 
ATOM      3  N   ILE A   5      -3.922  12.454  27.776  0.00  0.00    -0.297 N 
ATOM      4  H   ILE A   5      -4.948  12.322  27.668  0.00  0.00    +0.150 HD
ATOM      5  O   GLY A   4      -1.994  12.907  26.704  0.00  0.00    -0.273 OA
BRANCH   2   6
ATOM      6  CA  GLY A   4      -4.039  12.822  25.453  0.00  0.00    +0.176 C 
BRANCH   6   8
ATOM      7  C   GLY A   3      -3.699  13.119  23.135  0.00  0.00    +0.243 C 
ATOM      8  N   GLY A   4      -3.234  12.657  24.278  0.00  0.00    -0.295 N 
ATOM      9  H   GLY A   4      -2.308  12.186  24.327  0.00  0.00    +0.150 HD
ATOM     10  O   GLY A   3      -4.794  13.689  23.078  0.00  0.00    -0.273 OA
BRANCH   7  11
ATOM     11  CA  GLY A   3      -2.798  12.917  21.916  0.00  0.00    +0.176 C 
BRANCH  11  14
ATOM     12  C   ILE A   2      -4.255  12.005  20.221  0.00  0.00    +0.241 C 
ATOM     13  O   ILE A   2      -4.303  10.918  20.780  0.00  0.00    -0.273 OA
ATOM     14  N   GLY A   3      -3.549  13.027  20.684  0.00  0.00    -0.295 N 
ATOM     15  H   GLY A   3      -3.535  13.922  20.154  0.00  0.00    +0.150 HD
BRANCH  12  16
ATOM     16  CA  ILE A   2      -5.004  12.254  18.931  0.00  0.00    +0.148 C 
BRANCH  16  18
ATOM     17  C   MET A   1      -4.150  11.001  17.082  0.00  0.00    +0.238 C 
ATOM     18  N   ILE A   2      -4.990  11.063  18.107  0.00  0.00    -0.297 N 
ATOM     19  H   ILE A   2      -5.628  10.269  18.316  0.00  0.00    +0.150 HD
ATOM     20  O   MET A   1      -3.397  11.936  16.797  0.00  0.00    -0.274 OA
BRANCH  17  21
ATOM     21  CA  MET A   1      -4.185   9.715  16.269  0.00  0.00    +0.146 C 
BRANCH  21  22
ATOM     22  N   MET A   1      -4.500   9.973  14.878  0.00  0.00    -0.238 NA
ATOM     23  H   MET A   1      -3.975  10.703  14.356  0.00  0.00    +0.142 HD
ENDBRANCH  21  22
BRANCH  21  24
ATOM     24  CB  MET A   1      -2.879   8.908  16.432  0.00  0.00    +0.038 C 
BRANCH  24  25
ATOM     25  CG  MET A   1      -2.672   8.310  17.817  0.00  0.00    +0.060 C 
BRANCH  25  26
ATOM     26  SD  MET A   1      -1.223   7.230  17.863  0.00  0.00    -0.139 S 
ATOM     27  CE  MET A   1      -1.797   5.952  16.726  0.00  0.00    +0.069 C 
ENDBRANCH  25  26
ENDBRANCH  24  25
ENDBRANCH  21  24
ENDBRANCH  17  21
ENDBRANCH  16  18
BRANCH  16  28
ATOM     28  CB  ILE A   2      -6.401  12.818  19.187  0.00  0.00    +0.027 C 
ATOM     29  CG2 ILE A   2      -7.105  13.165  17.876  0.00  0.00    +0.002 C 
BRANCH  28  30
ATOM     30  CG1 ILE A   2      -7.233  11.826  19.991  0.00  0.00    +0.002 C 
ATOM     31  CD1 ILE A   2      -8.700  12.216  20.052  0.00  0.00    +0.000 C 
ENDBRANCH  28  30
ENDBRANCH  16  28
ENDBRANCH  12  16
ENDBRANCH  11  14
ENDBRANCH   7  11
ENDBRANCH   6   8
ENDBRANCH   2   6
ENDBRANCH   1   3
BRANCH   1  32
ATOM     32  C   ILE A   5      -3.109  10.857  29.366  0.00  0.00    +0.241 C 
ATOM     33  N   GLY A   6      -1.835  10.517  29.519  0.00  0.00    -0.295 N 
ATOM     34  H   GLY A   6      -1.114  11.264  29.461  0.00  0.00    +0.150 HD
ATOM     35  O   ILE A   5      -4.025  10.047  29.382  0.00  0.00    -0.273 OA
BRANCH  33  36
ATOM     36  CA  GLY A   6      -1.400   9.158  29.762  0.00  0.00    +0.176 C 
BRANCH  36  37
ATOM     37  C   GLY A   6      -1.782   8.167  28.656  0.00  0.00    +0.243 C 
ATOM     38  O   GLY A   6      -1.822   6.951  28.900  0.00  0.00    -0.273 OA
ATOM     39  N   GLY A   7      -2.058   8.655  27.435  0.00  0.00    -0.295 N 
ATOM     40  H   GLY A   7      -2.007   9.677  27.250  0.00  0.00    +0.150 HD
BRANCH  39  41
ATOM     41  CA  GLY A   7      -2.431   7.723  26.370  0.00  0.00    +0.176 C 
BRANCH  41  42
ATOM     42  C   GLY A   7      -2.391   8.214  24.919  0.00  0.00    +0.243 C 
ATOM     43  O   GLY A   7      -1.642   9.116  24.524  0.00  0.00    -0.273 OA
ATOM     44  N   PHE A   8      -3.229   7.544  24.129  0.00  0.00    -0.297 N 
ATOM     45  H   PHE A   8      -3.802   6.787  24.553  0.00  0.00    +0.150 HD
BRANCH  44  46
ATOM     46  CA  PHE A   8      -3.388   7.809  22.712  0.00  0.00    +0.153 C 
BRANCH  46  47
ATOM     47  C   PHE A   8      -4.548   7.042  22.097  0.00  0.00    +0.241 C 
ATOM     48  O   PHE A   8      -4.598   5.815  22.164  0.00  0.00    -0.273 OA
ATOM     49  N   ILE A   9      -5.484   7.768  21.478  0.00  0.00    -0.298 N 
ATOM     50  H   ILE A   9      -5.419   8.806  21.480  0.00  0.00    +0.150 HD
BRANCH  49  51
ATOM     51  CA  ILE A   9      -6.590   7.116  20.803  0.00  0.00    +0.137 C 
BRANCH  51  52
ATOM     52  CB  ILE A   9      -7.995   7.241  21.389  0.00  0.00    +0.026 C 
ATOM     53  CG2 ILE A   9      -8.265   6.119  22.383  0.00  0.00    +0.002 C 
BRANCH  52  54
ATOM     54  CG1 ILE A   9      -8.256   8.602  22.013  0.00  0.00    +0.002 C 
ATOM     55  CD1 ILE A   9      -9.687   9.078  21.772  0.00  0.00    +0.000 C 
ENDBRANCH  52  54
ENDBRANCH  51  52
BRANCH  51  56
ATOM     56  C   ILE A   9      -6.526   7.368  19.308  0.00  0.00    +0.227 C 
ATOM     57  O   ILE A   9      -6.324   8.491  18.841  0.00  0.00    -0.286 OA
ENDBRANCH  51  56
ENDBRANCH  49  51
ENDBRANCH  46  47
BRANCH  46  58
ATOM     58  CB  PHE A   8      -2.099   7.583  21.872  0.00  0.00    +0.055 C 
BRANCH  58  59
ATOM     59  CG  PHE A   8      -1.665   6.134  21.627  0.00  0.00    -0.020 A 
ATOM     60  CD2 PHE A   8      -0.682   5.547  22.425  0.00  0.00    -0.004 A 
ATOM     61  CE2 PHE A   8      -0.244   4.239  22.214  0.00  0.00    -0.000 A 
ATOM     62  CZ  PHE A   8      -0.790   3.482  21.177  0.00  0.00    -0.000 A 
ATOM     63  CE1 PHE A   8      -1.759   4.048  20.351  0.00  0.00    -0.000 A 
ATOM     64  CD1 PHE A   8      -2.178   5.360  20.582  0.00  0.00    -0.004 A 
ENDBRANCH  58  59
ENDBRANCH  46  58
ENDBRANCH  44  46
ENDBRANCH  41  42
ENDBRANCH  39  41
ENDBRANCH  36  37
ENDBRANCH  33  36
ENDBRANCH   1  32
BRANCH   1  65
ATOM     65  CB  ILE A   5      -4.233  13.045  30.078  0.00  0.00    +0.027 C 
ATOM     66  CG2 ILE A   5      -5.284  12.144  30.711  0.00  0.00    +0.002 C 
BRANCH  65  67
ATOM     67  CG1 ILE A   5      -3.381  13.751  31.123  0.00  0.00    +0.002 C 
ATOM     68  CD1 ILE A   5      -3.645  15.253  31.137  0.00  0.00    +0.000 C 
ENDBRANCH  65  67
ENDBRANCH   1  65
TORSDOF 29
REMARK  Name = ../refined-set-2016/1hvh/1hvh_pocket.pdb
REMARK  200 active torsions:
REMARK  status: ('A' for Active; 'I' for Inactive)
REMARK    1  A    between atoms: _1  and  _3
REMARK    2  A    between atoms: _3  and  _4
REMARK    3  A    between atoms: _3  and  _6
REMARK    4  A    between atoms: _6  and  _7
REMARK    5  A    between atoms: _7  and  _8
REMARK    6  A    between atoms: _8  and  _9
REMARK    7  A    between atoms: _18  and  _20
REMARK    8  A    between atoms: _20  and  _21
REMARK    9  A    between atoms: _20  and  _23
REMARK   10  A    between atoms: _23  and  _24
REMARK   11  A    between atoms: _27  and  _29
REMARK   12  A    between atoms: _29  and  _30
REMARK   13  A    between atoms: _29  and  _32
REMARK   14  A    between atoms: _32  and  _33
REMARK   15  A    between atoms: _36  and  _38
REMARK   16  A    between atoms: _38  and  _39
REMARK   17  A    between atoms: _38  and  _41
REMARK   18  A    between atoms: _41  and  _42
REMARK   19  A    between atoms: _45  and  _47
REMARK   20  A    between atoms: _47  and  _48
REMARK   21  A    between atoms: _47  and  _50
REMARK   22  A    between atoms: _50  and  _51
REMARK   23  A    between atoms: _54  and  _56
REMARK   24  A    between atoms: _56  and  _57
REMARK   25  A    between atoms: _59  and  _61
REMARK   26  A    between atoms: _61  and  _62
REMARK   27  A    between atoms: _65  and  _67
REMARK   28  A    between atoms: _67  and  _68
REMARK   29  A    between atoms: _67  and  _70
REMARK   30  A    between atoms: _70  and  _71
REMARK   31  A    between atoms: _74  and  _76
REMARK   32  A    between atoms: _76  and  _77
REMARK   33  A    between atoms: _76  and  _79
REMARK   34  A    between atoms: _79  and  _80
REMARK   35  A    between atoms: _83  and  _85
REMARK   36  A    between atoms: _85  and  _86
REMARK   37  A    between atoms: _85  and  _88
REMARK   38  A    between atoms: _88  and  _89
REMARK   39  A    between atoms: _92  and  _94
REMARK   40  A    between atoms: _94  and  _95
REMARK   41  A    between atoms: _94  and  _97
REMARK   42  A    between atoms: _100  and  _102
REMARK   43  A    between atoms: _102  and  _103
REMARK   44  A    between atoms: _102  and  _105
REMARK   45  A    between atoms: _105  and  _106
REMARK   46  A    between atoms: _109  and  _111
REMARK   47  A    between atoms: _111  and  _112
REMARK   48  A    between atoms: _111  and  _114
REMARK   49  A    between atoms: _114  and  _115
REMARK   50  A    between atoms: _118  and  _120
REMARK   51  A    between atoms: _120  and  _121
REMARK   52  A    between atoms: _123  and  _125
REMARK   53  A    between atoms: _125  and  _126
REMARK   54  A    between atoms: _128  and  _130
REMARK   55  A    between atoms: _130  and  _131
REMARK   56  A    between atoms: _130  and  _133
REMARK   57  A    between atoms: _133  and  _134
REMARK   58  A    between atoms: _137  and  _139
REMARK   59  A    between atoms: _139  and  _140
REMARK   60  A    between atoms: _142  and  _144
REMARK   61  A    between atoms: _144  and  _145
REMARK   62  A    between atoms: _147  and  _149
REMARK   63  A    between atoms: _149  and  _150
REMARK   64  A    between atoms: _149  and  _152
REMARK   65  A    between atoms: _152  and  _153
REMARK   66  A    between atoms: _156  and  _158
REMARK   67  A    between atoms: _158  and  _159
REMARK   68  A    between atoms: _158  and  _161
REMARK   69  A    between atoms: _161  and  _162
REMARK   70  A    between atoms: _165  and  _167
REMARK   71  A    between atoms: _167  and  _168
REMARK   72  A    between atoms: _167  and  _170
REMARK   73  A    between atoms: _170  and  _171
REMARK   74  A    between atoms: _175  and  _176
REMARK   75  A    between atoms: _181  and  _183
REMARK   76  A    between atoms: _183  and  _184
REMARK   77  A    between atoms: _183  and  _186
REMARK   78  A    between atoms: _189  and  _191
REMARK   79  A    between atoms: _191  and  _192
REMARK   80  A    between atoms: _191  and  _194
REMARK   81  A    between atoms: _194  and  _195
REMARK   82  A    between atoms: _200  and  _202
REMARK   83  A    between atoms: _202  and  _203
REMARK   84  A    between atoms: _202  and  _205
REMARK   85  A    between atoms: _205  and  _206
REMARK   86  A    between atoms: _209  and  _211
REMARK   87  A    between atoms: _211  and  _212
REMARK   88  A    between atoms: _211  and  _214
REMARK   89  A    between atoms: _214  and  _215
REMARK   90  A    between atoms: _218  and  _220
REMARK   91  A    between atoms: _220  and  _221
REMARK   92  A    between atoms: _223  and  _225
REMARK   93  A    between atoms: _225  and  _226
REMARK   94  A    between atoms: _225  and  _228
REMARK   95  A    between atoms: _228  and  _229
REMARK   96  A    between atoms: _229  and  _230
REMARK   97  A    between atoms: _230  and  _231
REMARK   98  A    between atoms: _240  and  _242
REMARK   99  A    between atoms: _242  and  _243
REMARK  100  A    between atoms: _242  and  _245
REMARK  101  A    between atoms: _245  and  _246
REMARK  102  A    between atoms: _251  and  _253
REMARK  103  A    between atoms: _253  and  _254
REMARK  104  A    between atoms: _253  and  _256
REMARK  105  A    between atoms: _256  and  _257
REMARK  106  A    between atoms: _257  and  _258
REMARK  107  A    between atoms: _258  and  _259
REMARK  108  A    between atoms: _268  and  _270
REMARK  109  A    between atoms: _270  and  _271
REMARK  110  A    between atoms: _270  and  _273
REMARK  111  A    between atoms: _273  and  _274
REMARK  112  A    between atoms: _277  and  _279
REMARK  113  A    between atoms: _279  and  _280
REMARK  114  A    between atoms: _279  and  _282
REMARK  115  A    between atoms: _282  and  _283
REMARK  116  A    between atoms: _286  and  _288
REMARK  117  A    between atoms: _288  and  _289
REMARK  118  A    between atoms: _288  and  _291
REMARK  119  A    between atoms: _291  and  _292
REMARK  120  A    between atoms: _295  and  _297
REMARK  121  A    between atoms: _297  and  _298
REMARK  122  A    between atoms: _297  and  _300
REMARK  123  A    between atoms: _300  and  _301
REMARK  124  A    between atoms: _304  and  _306
REMARK  125  A    between atoms: _306  and  _307
REMARK  126  A    between atoms: _309  and  _311
REMARK  127  A    between atoms: _311  and  _312
REMARK  128  A    between atoms: _315  and  _317
REMARK  129  A    between atoms: _317  and  _318
REMARK  130  A    between atoms: _317  and  _320
REMARK  131  A    between atoms: _320  and  _321
REMARK  132  A    between atoms: _324  and  _326
REMARK  133  A    between atoms: _326  and  _327
REMARK  134  A    between atoms: _326  and  _329
REMARK  135  A    between atoms: _329  and  _330
REMARK  136  A    between atoms: _333  and  _335
REMARK  137  A    between atoms: _335  and  _336
REMARK  138  A    between atoms: _335  and  _338
REMARK  139  A    between atoms: _338  and  _339
REMARK  140  A    between atoms: _342  and  _344
REMARK  141  A    between atoms: _344  and  _345
REMARK  142  A    between atoms: _344  and  _347
REMARK  143  A    between atoms: _350  and  _352
REMARK  144  A    between atoms: _352  and  _353
REMARK  145  A    between atoms: _352  and  _355
REMARK  146  A    between atoms: _355  and  _356
REMARK  147  A    between atoms: _356  and  _357
REMARK  148  A    between atoms: _359  and  _361
REMARK  149  A    between atoms: _361  and  _362
REMARK  150  A    between atoms: _361  and  _364
REMARK  151  A    between atoms: _364  and  _365
REMARK  152  A    between atoms: _368  and  _370
REMARK  153  A    between atoms: _370  and  _371
REMARK  154  A    between atoms: _373  and  _375
REMARK  155  A    between atoms: _375  and  _376
REMARK  156  A    between atoms: _378  and  _380
REMARK  157  A    between atoms: _380  and  _381
REMARK  158  A    between atoms: _380  and  _383
REMARK  159  A    between atoms: _383  and  _384
REMARK  160  A    between atoms: _387  and  _389
REMARK  161  A    between atoms: _389  and  _390
REMARK  162  A    between atoms: _392  and  _394
REMARK  163  A    between atoms: _394  and  _395
REMARK  164  A    between atoms: _397  and  _399
REMARK  165  A    between atoms: _399  and  _400
REMARK  166  A    between atoms: _399  and  _402
REMARK  167  A    between atoms: _402  and  _403
REMARK  168  A    between atoms: _409  and  _411
REMARK  169  A    between atoms: _411  and  _412
REMARK  170  A    between atoms: _411  and  _414
REMARK  171  A    between atoms: _414  and  _415
REMARK  172  A    between atoms: _418  and  _420
REMARK  173  A    between atoms: _420  and  _421
REMARK  174  A    between atoms: _420  and  _423
REMARK  175  A    between atoms: _423  and  _424
REMARK  176  A    between atoms: _428  and  _429
REMARK  177  A    between atoms: _434  and  _436
REMARK  178  A    between atoms: _436  and  _437
REMARK  179  A    between atoms: _436  and  _439
REMARK  180  A    between atoms: _439  and  _440
REMARK  181  A    between atoms: _444  and  _445
REMARK  182  A    between atoms: _450  and  _452
REMARK  183  A    between atoms: _452  and  _453
REMARK  184  A    between atoms: _452  and  _455
REMARK  185  A    between atoms: _458  and  _460
REMARK  186  A    between atoms: _460  and  _461
REMARK  187  A    between atoms: _460  and  _463
REMARK  188  A    between atoms: _463  and  _464
REMARK  189  A    between atoms: _469  and  _471
REMARK  190  A    between atoms: _471  and  _472
REMARK  191  A    between atoms: _471  and  _474
REMARK  192  A    between atoms: _474  and  _475
REMARK  193  A    between atoms: _478  and  _480
REMARK  194  A    between atoms: _480  and  _481
REMARK  195  A    between atoms: _483  and  _485
REMARK  196  A    between atoms: _485  and  _486
REMARK  197  A    between atoms: _485  and  _488
REMARK  198  A    between atoms: _488  and  _489
REMARK  199  A    between atoms: _489  and  _490
REMARK  200  A    between atoms: _490  and  _491
REMARK                            x       y       z     vdW  Elec       q    Type
REMARK                         _______ _______ _______ _____ _____    ______ ____
ROOT
ATOM      1  CA  LEU A   1     -13.315  12.696  14.849  0.00  0.00    +0.133 C 
ENDROOT
BRANCH   1   2
ATOM      2  N   LEU A   1     -14.149  13.849  14.667  0.00  0.00    -0.239 NA
ATOM      3  H   LEU A   1     -14.353  14.468  15.477  0.00  0.00    +0.142 HD
ENDBRANCH   1   2
BRANCH   1   4
ATOM      4  C   LEU A   1     -14.101  11.639  15.532  0.00  0.00    +0.224 C 
ATOM      5  O   LEU A   1     -14.725  11.871  16.549  0.00  0.00    -0.287 OA
ENDBRANCH   1   4
BRANCH   1   6
ATOM      6  CB  LEU A   1     -12.071  12.991  15.662  0.00  0.00    +0.025 C 
BRANCH   6   7
ATOM      7  CG  LEU A   1     -11.029  13.591  14.773  0.00  0.00    +0.002 C 
ATOM      8  CD2 LEU A   1     -10.214  14.574  15.596  0.00  0.00    +0.000 C 
ATOM      9  CD1 LEU A   1     -10.184  12.457  14.222  0.00  0.00    +0.000 C 
ENDBRANCH   6   7
ENDBRANCH   1   6
TORSDOF 4
REMARK  Name = ../refined-set-2016/1hvh/1hvh_pocket.pdb
REMARK  200 active torsions:
REMARK  status: ('A' for Active; 'I' for Inactive)
REMARK    1  A    between atoms: _1  and  _3
REMARK    2  A    between atoms: _3  and  _4
REMARK    3  A    between atoms: _3  and  _6
REMARK    4  A    between atoms: _6  and  _7
REMARK    5  A    between atoms: _7  and  _8
REMARK    6  A    between atoms: _8  and  _9
REMARK    7  A    between atoms: _18  and  _20
REMARK    8  A    between atoms: _20  and  _21
REMARK    9  A    between atoms: _20  and  _23
REMARK   10  A    between atoms: _23  and  _24
REMARK   11  A    between atoms: _27  and  _29
REMARK   12  A    between atoms: _29  and  _30
REMARK   13  A    between atoms: _29  and  _32
REMARK   14  A    between atoms: _32  and  _33
REMARK   15  A    between atoms: _36  and  _38
REMARK   16  A    between atoms: _38  and  _39
REMARK   17  A    between atoms: _38  and  _41
REMARK   18  A    between atoms: _41  and  _42
REMARK   19  A    between atoms: _45  and  _47
REMARK   20  A    between atoms: _47  and  _48
REMARK   21  A    between atoms: _47  and  _50
REMARK   22  A    between atoms: _50  and  _51
REMARK   23  A    between atoms: _54  and  _56
REMARK   24  A    between atoms: _56  and  _57
REMARK   25  A    between atoms: _59  and  _61
REMARK   26  A    between atoms: _61  and  _62
REMARK   27  A    between atoms: _65  and  _67
REMARK   28  A    between atoms: _67  and  _68
REMARK   29  A    between atoms: _67  and  _70
REMARK   30  A    between atoms: _70  and  _71
REMARK   31  A    between atoms: _74  and  _76
REMARK   32  A    between atoms: _76  and  _77
REMARK   33  A    between atoms: _76  and  _79
REMARK   34  A    between atoms: _79  and  _80
REMARK   35  A    between atoms: _83  and  _85
REMARK   36  A    between atoms: _85  and  _86
REMARK   37  A    between atoms: _85  and  _88
REMARK   38  A    between atoms: _88  and  _89
REMARK   39  A    between atoms: _92  and  _94
REMARK   40  A    between atoms: _94  and  _95
REMARK   41  A    between atoms: _94  and  _97
REMARK   42  A    between atoms: _100  and  _102
REMARK   43  A    between atoms: _102  and  _103
REMARK   44  A    between atoms: _102  and  _105
REMARK   45  A    between atoms: _105  and  _106
REMARK   46  A    between atoms: _109  and  _111
REMARK   47  A    between atoms: _111  and  _112
REMARK   48  A    between atoms: _111  and  _114
REMARK   49  A    between atoms: _114  and  _115
REMARK   50  A    between atoms: _118  and  _120
REMARK   51  A    between atoms: _120  and  _121
REMARK   52  A    between atoms: _123  and  _125
REMARK   53  A    between atoms: _125  and  _126
REMARK   54  A    between atoms: _128  and  _130
REMARK   55  A    between atoms: _130  and  _131
REMARK   56  A    between atoms: _130  and  _133
REMARK   57  A    between atoms: _133  and  _134
REMARK   58  A    between atoms: _137  and  _139
REMARK   59  A    between atoms: _139  and  _140
REMARK   60  A    between atoms: _142  and  _144
REMARK   61  A    between atoms: _144  and  _145
REMARK   62  A    between atoms: _147  and  _149
REMARK   63  A    between atoms: _149  and  _150
REMARK   64  A    between atoms: _149  and  _152
REMARK   65  A    between atoms: _152  and  _153
REMARK   66  A    between atoms: _156  and  _158
REMARK   67  A    between atoms: _158  and  _159
REMARK   68  A    between atoms: _158  and  _161
REMARK   69  A    between atoms: _161  and  _162
REMARK   70  A    between atoms: _165  and  _167
REMARK   71  A    between atoms: _167  and  _168
REMARK   72  A    between atoms: _167  and  _170
REMARK   73  A    between atoms: _170  and  _171
REMARK   74  A    between atoms: _175  and  _176
REMARK   75  A    between atoms: _181  and  _183
REMARK   76  A    between atoms: _183  and  _184
REMARK   77  A    between atoms: _183  and  _186
REMARK   78  A    between atoms: _189  and  _191
REMARK   79  A    between atoms: _191  and  _192
REMARK   80  A    between atoms: _191  and  _194
REMARK   81  A    between atoms: _194  and  _195
REMARK   82  A    between atoms: _200  and  _202
REMARK   83  A    between atoms: _202  and  _203
REMARK   84  A    between atoms: _202  and  _205
REMARK   85  A    between atoms: _205  and  _206
REMARK   86  A    between atoms: _209  and  _211
REMARK   87  A    between atoms: _211  and  _212
REMARK   88  A    between atoms: _211  and  _214
REMARK   89  A    between atoms: _214  and  _215
REMARK   90  A    between atoms: _218  and  _220
REMARK   91  A    between atoms: _220  and  _221
REMARK   92  A    between atoms: _223  and  _225
REMARK   93  A    between atoms: _225  and  _226
REMARK   94  A    between atoms: _225  and  _228
REMARK   95  A    between atoms: _228  and  _229
REMARK   96  A    between atoms: _229  and  _230
REMARK   97  A    between atoms: _230  and  _231
REMARK   98  A    between atoms: _240  and  _242
REMARK   99  A    between atoms: _242  and  _243
REMARK  100  A    between atoms: _242  and  _245
REMARK  101  A    between atoms: _245  and  _246
REMARK  102  A    between atoms: _251  and  _253
REMARK  103  A    between atoms: _253  and  _254
REMARK  104  A    between atoms: _253  and  _256
REMARK  105  A    between atoms: _256  and  _257
REMARK  106  A    between atoms: _257  and  _258
REMARK  107  A    between atoms: _258  and  _259
REMARK  108  A    between atoms: _268  and  _270
REMARK  109  A    between atoms: _270  and  _271
REMARK  110  A    between atoms: _270  and  _273
REMARK  111  A    between atoms: _273  and  _274
REMARK  112  A    between atoms: _277  and  _279
REMARK  113  A    between atoms: _279  and  _280
REMARK  114  A    between atoms: _279  and  _282
REMARK  115  A    between atoms: _282  and  _283
REMARK  116  A    between atoms: _286  and  _288
REMARK  117  A    between atoms: _288  and  _289
REMARK  118  A    between atoms: _288  and  _291
REMARK  119  A    between atoms: _291  and  _292
REMARK  120  A    between atoms: _295  and  _297
REMARK  121  A    between atoms: _297  and  _298
REMARK  122  A    between atoms: _297  and  _300
REMARK  123  A    between atoms: _300  and  _301
REMARK  124  A    between atoms: _304  and  _306
REMARK  125  A    between atoms: _306  and  _307
REMARK  126  A    between atoms: _309  and  _311
REMARK  127  A    between atoms: _311  and  _312
REMARK  128  A    between atoms: _315  and  _317
REMARK  129  A    between atoms: _317  and  _318
REMARK  130  A    between atoms: _317  and  _320
REMARK  131  A    between atoms: _320  and  _321
REMARK  132  A    between atoms: _324  and  _326
REMARK  133  A    between atoms: _326  and  _327
REMARK  134  A    between atoms: _326  and  _329
REMARK  135  A    between atoms: _329  and  _330
REMARK  136  A    between atoms: _333  and  _335
REMARK  137  A    between atoms: _335  and  _336
REMARK  138  A    between atoms: _335  and  _338
REMARK  139  A    between atoms: _338  and  _339
REMARK  140  A    between atoms: _342  and  _344
REMARK  141  A    between atoms: _344  and  _345
REMARK  142  A    between atoms: _344  and  _347
REMARK  143  A    between atoms: _350  and  _352
REMARK  144  A    between atoms: _352  and  _353
REMARK  145  A    between atoms: _352  and  _355
REMARK  146  A    between atoms: _355  and  _356
REMARK  147  A    between atoms: _356  and  _357
REMARK  148  A    between atoms: _359  and  _361
REMARK  149  A    between atoms: _361  and  _362
REMARK  150  A    between atoms: _361  and  _364
REMARK  151  A    between atoms: _364  and  _365
REMARK  152  A    between atoms: _368  and  _370
REMARK  153  A    between atoms: _370  and  _371
REMARK  154  A    between atoms: _373  and  _375
REMARK  155  A    between atoms: _375  and  _376
REMARK  156  A    between atoms: _378  and  _380
REMARK  157  A    between atoms: _380  and  _381
REMARK  158  A    between atoms: _380  and  _383
REMARK  159  A    between atoms: _383  and  _384
REMARK  160  A    between atoms: _387  and  _389
REMARK  161  A    between atoms: _389  and  _390
REMARK  162  A    between atoms: _392  and  _394
REMARK  163  A    between atoms: _394  and  _395
REMARK  164  A    between atoms: _397  and  _399
REMARK  165  A    between atoms: _399  and  _400
REMARK  166  A    between atoms: _399  and  _402
REMARK  167  A    between atoms: _402  and  _403
REMARK  168  A    between atoms: _409  and  _411
REMARK  169  A    between atoms: _411  and  _412
REMARK  170  A    between atoms: _411  and  _414
REMARK  171  A    between atoms: _414  and  _415
REMARK  172  A    between atoms: _418  and  _420
REMARK  173  A    between atoms: _420  and  _421
REMARK  174  A    between atoms: _420  and  _423
REMARK  175  A    between atoms: _423  and  _424
REMARK  176  A    between atoms: _428  and  _429
REMARK  177  A    between atoms: _434  and  _436
REMARK  178  A    between atoms: _436  and  _437
REMARK  179  A    between atoms: _436  and  _439
REMARK  180  A    between atoms: _439  and  _440
REMARK  181  A    between atoms: _444  and  _445
REMARK  182  A    between atoms: _450  and  _452
REMARK  183  A    between atoms: _452  and  _453
REMARK  184  A    between atoms: _452  and  _455
REMARK  185  A    between atoms: _458  and  _460
REMARK  186  A    between atoms: _460  and  _461
REMARK  187  A    between atoms: _460  and  _463
REMARK  188  A    between atoms: _463  and  _464
REMARK  189  A    between atoms: _469  and  _471
REMARK  190  A    between atoms: _471  and  _472
REMARK  191  A    between atoms: _471  and  _474
REMARK  192  A    between atoms: _474  and  _475
REMARK  193  A    between atoms: _478  and  _480
REMARK  194  A    between atoms: _480  and  _481
REMARK  195  A    between atoms: _483  and  _485
REMARK  196  A    between atoms: _485  and  _486
REMARK  197  A    between atoms: _485  and  _488
REMARK  198  A    between atoms: _488  and  _489
REMARK  199  A    between atoms: _489  and  _490
REMARK  200  A    between atoms: _490  and  _491
REMARK                            x       y       z     vdW  Elec       q    Type
REMARK                         _______ _______ _______ _____ _____    ______ ____
ROOT
ATOM      1  CA  VAL A   4     -17.458  11.296  26.138  0.00  0.00    +0.149 C 
ENDROOT
BRANCH   1   2
ATOM      2  C   VAL A   4     -17.403  11.909  24.764  0.00  0.00    +0.241 C 
ATOM      3  N   ASN A   5     -18.558  12.380  24.329  0.00  0.00    -0.297 N 
ATOM      4  H   ASN A   5     -19.398  12.225  24.922  0.00  0.00    +0.150 HD
ATOM      5  O   VAL A   4     -16.345  11.999  24.153  0.00  0.00    -0.273 OA
BRANCH   3   6
ATOM      6  CA  ASN A   5     -18.737  13.102  23.076  0.00  0.00    +0.158 C 
BRANCH   6   7
ATOM      7  C   ASN A   5     -18.300  14.551  23.354  0.00  0.00    +0.241 C 
ATOM      8  O   ASN A   5     -18.892  15.245  24.154  0.00  0.00    -0.273 OA
ATOM      9  N   ILE A   6     -17.283  15.027  22.663  0.00  0.00    -0.298 N 
ATOM     10  H   ILE A   6     -16.856  14.427  21.929  0.00  0.00    +0.150 HD
BRANCH   9  11
ATOM     11  CA  ILE A   6     -16.735  16.350  22.883  0.00  0.00    +0.137 C 
BRANCH  11  12
ATOM     12  CB  ILE A   6     -15.225  16.154  23.148  0.00  0.00    +0.026 C 
ATOM     13  CG2 ILE A   6     -14.423  17.441  23.014  0.00  0.00    +0.002 C 
BRANCH  12  14
ATOM     14  CG1 ILE A   6     -15.038  15.568  24.549  0.00  0.00    +0.002 C 
ATOM     15  CD1 ILE A   6     -13.641  15.016  24.814  0.00  0.00    +0.000 C 
ENDBRANCH  12  14
ENDBRANCH  11  12
BRANCH  11  16
ATOM     16  C   ILE A   6     -16.895  17.265  21.711  0.00  0.00    +0.227 C 
ATOM     17  O   ILE A   6     -16.621  16.887  20.604  0.00  0.00    -0.286 OA
ENDBRANCH  11  16
ENDBRANCH   9  11
ENDBRANCH   6   7
BRANCH   6  18
ATOM     18  CB  ASN A   5     -20.235  13.164  22.722  0.00  0.00    +0.114 C 
BRANCH  18  19
ATOM     19  CG  ASN A   5     -20.759  11.905  22.099  0.00  0.00    +0.222 C 
ATOM     20  ND2 ASN A   5     -21.957  11.499  22.450  0.00  0.00    -0.329 N 
ATOM     21 HD21 ASN A   5     -22.530  12.072  23.103  0.00  0.00    +0.145 HD
ATOM     22 HD22 ASN A   5     -22.333  10.605  22.076  0.00  0.00    +0.145 HD
ATOM     23  OD1 ASN A   5     -20.046  11.283  21.344  0.00  0.00    -0.275 OA
ENDBRANCH  18  19
ENDBRANCH   6  18
ENDBRANCH   3   6
ENDBRANCH   1   2
BRANCH   1  26
ATOM     24  C   PRO A   3     -16.801   9.141  27.091  0.00  0.00    +0.241 C 
ATOM     25  O   PRO A   3     -17.896   9.020  27.653  0.00  0.00    -0.273 OA
ATOM     26  N   VAL A   4     -16.513  10.211  26.336  0.00  0.00    -0.297 N 
ATOM     27  H   VAL A   4     -15.582  10.266  25.877  0.00  0.00    +0.150 HD
BRANCH  24  30
ATOM     28  C   THR A   2     -14.917   8.063  24.996  0.00  0.00    +0.246 C 
ATOM     29  N   PRO A   3     -14.647   8.298  26.260  0.00  0.00    -0.272 N 
ATOM     30  CA  PRO A   3     -15.684   8.080  27.233  0.00  0.00    +0.152 C 
ATOM     31  CB  PRO A   3     -14.992   8.256  28.587  0.00  0.00    +0.031 C 
ATOM     32  CG  PRO A   3     -13.631   8.877  28.336  0.00  0.00    +0.024 C 
ATOM     33  CD  PRO A   3     -13.346   8.666  26.872  0.00  0.00    +0.094 C 
ATOM     34  O   THR A   2     -15.985   7.592  24.626  0.00  0.00    -0.273 OA
BRANCH  28  35
ATOM     35  CA  THR A   2     -13.840   8.319  23.988  0.00  0.00    +0.176 C 
BRANCH  35  37
ATOM     36  C   PRO A   1     -12.912   6.700  22.548  0.00  0.00    +0.239 C 
ATOM     37  N   THR A   2     -13.978   7.280  23.008  0.00  0.00    -0.295 N 
ATOM     38  H   THR A   2     -14.920   6.995  22.671  0.00  0.00    +0.150 HD
ATOM     39  O   PRO A   1     -11.794   7.031  22.912  0.00  0.00    -0.274 OA
BRANCH  36  41
ATOM     40  N   PRO A   1     -12.892   6.090  20.205  0.00  0.00    -0.210 NA
ATOM     41  CA  PRO A   1     -13.148   5.612  21.536  0.00  0.00    +0.149 C 
ATOM     42  CB  PRO A   1     -12.160   4.453  21.763  0.00  0.00    +0.028 C 
ATOM     43  CG  PRO A   1     -11.090   4.575  20.687  0.00  0.00    +0.021 C 
ATOM     44  CD  PRO A   1     -11.551   5.662  19.711  0.00  0.00    +0.089 C 
ENDBRANCH  36  41
ENDBRANCH  35  37
BRANCH  35  45
ATOM     45  CB  THR A   2     -13.937   9.715  23.324  0.00  0.00    +0.137 C 
ATOM     46  CG2 THR A   2     -15.054   9.760  22.280  0.00  0.00    +0.034 C 
BRANCH  45  47
ATOM     47  OG1 THR A   2     -14.097  10.754  24.276  0.00  0.00    -0.382 OA
ATOM     48  HG1 THR A   2     -14.927  10.601  24.793  0.00  0.00    +0.210 HD
ENDBRANCH  45  47
ENDBRANCH  35  45
ENDBRANCH  28  35
ENDBRANCH  24  30
ENDBRANCH   1  26
BRANCH   1  49
ATOM     49  CB  VAL A   4     -17.165  12.455  27.090  0.00  0.00    +0.027 C 
ATOM     50  CG2 VAL A   4     -16.100  12.078  28.092  0.00  0.00    +0.002 C 
ATOM     51  CG1 VAL A   4     -18.425  12.837  27.838  0.00  0.00    +0.002 C 
ENDBRANCH   1  49
TORSDOF 17
REMARK  Name = ../refined-set-2016/1hvh/1hvh_pocket.pdb
REMARK  200 active torsions:
REMARK  status: ('A' for Active; 'I' for Inactive)
REMARK    1  A    between atoms: _1  and  _3
REMARK    2  A    between atoms: _3  and  _4
REMARK    3  A    between atoms: _3  and  _6
REMARK    4  A    between atoms: _6  and  _7
REMARK    5  A    between atoms: _7  and  _8
REMARK    6  A    between atoms: _8  and  _9
REMARK    7  A    between atoms: _18  and  _20
REMARK    8  A    between atoms: _20  and  _21
REMARK    9  A    between atoms: _20  and  _23
REMARK   10  A    between atoms: _23  and  _24
REMARK   11  A    between atoms: _27  and  _29
REMARK   12  A    between atoms: _29  and  _30
REMARK   13  A    between atoms: _29  and  _32
REMARK   14  A    between atoms: _32  and  _33
REMARK   15  A    between atoms: _36  and  _38
REMARK   16  A    between atoms: _38  and  _39
REMARK   17  A    between atoms: _38  and  _41
REMARK   18  A    between atoms: _41  and  _42
REMARK   19  A    between atoms: _45  and  _47
REMARK   20  A    between atoms: _47  and  _48
REMARK   21  A    between atoms: _47  and  _50
REMARK   22  A    between atoms: _50  and  _51
REMARK   23  A    between atoms: _54  and  _56
REMARK   24  A    between atoms: _56  and  _57
REMARK   25  A    between atoms: _59  and  _61
REMARK   26  A    between atoms: _61  and  _62
REMARK   27  A    between atoms: _65  and  _67
REMARK   28  A    between atoms: _67  and  _68
REMARK   29  A    between atoms: _67  and  _70
REMARK   30  A    between atoms: _70  and  _71
REMARK   31  A    between atoms: _74  and  _76
REMARK   32  A    between atoms: _76  and  _77
REMARK   33  A    between atoms: _76  and  _79
REMARK   34  A    between atoms: _79  and  _80
REMARK   35  A    between atoms: _83  and  _85
REMARK   36  A    between atoms: _85  and  _86
REMARK   37  A    between atoms: _85  and  _88
REMARK   38  A    between atoms: _88  and  _89
REMARK   39  A    between atoms: _92  and  _94
REMARK   40  A    between atoms: _94  and  _95
REMARK   41  A    between atoms: _94  and  _97
REMARK   42  A    between atoms: _100  and  _102
REMARK   43  A    between atoms: _102  and  _103
REMARK   44  A    between atoms: _102  and  _105
REMARK   45  A    between atoms: _105  and  _106
REMARK   46  A    between atoms: _109  and  _111
REMARK   47  A    between atoms: _111  and  _112
REMARK   48  A    between atoms: _111  and  _114
REMARK   49  A    between atoms: _114  and  _115
REMARK   50  A    between atoms: _118  and  _120
REMARK   51  A    between atoms: _120  and  _121
REMARK   52  A    between atoms: _123  and  _125
REMARK   53  A    between atoms: _125  and  _126
REMARK   54  A    between atoms: _128  and  _130
REMARK   55  A    between atoms: _130  and  _131
REMARK   56  A    between atoms: _130  and  _133
REMARK   57  A    between atoms: _133  and  _134
REMARK   58  A    between atoms: _137  and  _139
REMARK   59  A    between atoms: _139  and  _140
REMARK   60  A    between atoms: _142  and  _144
REMARK   61  A    between atoms: _144  and  _145
REMARK   62  A    between atoms: _147  and  _149
REMARK   63  A    between atoms: _149  and  _150
REMARK   64  A    between atoms: _149  and  _152
REMARK   65  A    between atoms: _152  and  _153
REMARK   66  A    between atoms: _156  and  _158
REMARK   67  A    between atoms: _158  and  _159
REMARK   68  A    between atoms: _158  and  _161
REMARK   69  A    between atoms: _161  and  _162
REMARK   70  A    between atoms: _165  and  _167
REMARK   71  A    between atoms: _167  and  _168
REMARK   72  A    between atoms: _167  and  _170
REMARK   73  A    between atoms: _170  and  _171
REMARK   74  A    between atoms: _175  and  _176
REMARK   75  A    between atoms: _181  and  _183
REMARK   76  A    between atoms: _183  and  _184
REMARK   77  A    between atoms: _183  and  _186
REMARK   78  A    between atoms: _189  and  _191
REMARK   79  A    between atoms: _191  and  _192
REMARK   80  A    between atoms: _191  and  _194
REMARK   81  A    between atoms: _194  and  _195
REMARK   82  A    between atoms: _200  and  _202
REMARK   83  A    between atoms: _202  and  _203
REMARK   84  A    between atoms: _202  and  _205
REMARK   85  A    between atoms: _205  and  _206
REMARK   86  A    between atoms: _209  and  _211
REMARK   87  A    between atoms: _211  and  _212
REMARK   88  A    between atoms: _211  and  _214
REMARK   89  A    between atoms: _214  and  _215
REMARK   90  A    between atoms: _218  and  _220
REMARK   91  A    between atoms: _220  and  _221
REMARK   92  A    between atoms: _223  and  _225
REMARK   93  A    between atoms: _225  and  _226
REMARK   94  A    between atoms: _225  and  _228
REMARK   95  A    between atoms: _228  and  _229
REMARK   96  A    between atoms: _229  and  _230
REMARK   97  A    between atoms: _230  and  _231
REMARK   98  A    between atoms: _240  and  _242
REMARK   99  A    between atoms: _242  and  _243
REMARK  100  A    between atoms: _242  and  _245
REMARK  101  A    between atoms: _245  and  _246
REMARK  102  A    between atoms: _251  and  _253
REMARK  103  A    between atoms: _253  and  _254
REMARK  104  A    between atoms: _253  and  _256
REMARK  105  A    between atoms: _256  and  _257
REMARK  106  A    between atoms: _257  and  _258
REMARK  107  A    between atoms: _258  and  _259
REMARK  108  A    between atoms: _268  and  _270
REMARK  109  A    between atoms: _270  and  _271
REMARK  110  A    between atoms: _270  and  _273
REMARK  111  A    between atoms: _273  and  _274
REMARK  112  A    between atoms: _277  and  _279
REMARK  113  A    between atoms: _279  and  _280
REMARK  114  A    between atoms: _279  and  _282
REMARK  115  A    between atoms: _282  and  _283
REMARK  116  A    between atoms: _286  and  _288
REMARK  117  A    between atoms: _288  and  _289
REMARK  118  A    between atoms: _288  and  _291
REMARK  119  A    between atoms: _291  and  _292
REMARK  120  A    between atoms: _295  and  _297
REMARK  121  A    between atoms: _297  and  _298
REMARK  122  A    between atoms: _297  and  _300
REMARK  123  A    between atoms: _300  and  _301
REMARK  124  A    between atoms: _304  and  _306
REMARK  125  A    between atoms: _306  and  _307
REMARK  126  A    between atoms: _309  and  _311
REMARK  127  A    between atoms: _311  and  _312
REMARK  128  A    between atoms: _315  and  _317
REMARK  129  A    between atoms: _317  and  _318
REMARK  130  A    between atoms: _317  and  _320
REMARK  131  A    between atoms: _320  and  _321
REMARK  132  A    between atoms: _324  and  _326
REMARK  133  A    between atoms: _326  and  _327
REMARK  134  A    between atoms: _326  and  _329
REMARK  135  A    between atoms: _329  and  _330
REMARK  136  A    between atoms: _333  and  _335
REMARK  137  A    between atoms: _335  and  _336
REMARK  138  A    between atoms: _335  and  _338
REMARK  139  A    between atoms: _338  and  _339
REMARK  140  A    between atoms: _342  and  _344
REMARK  141  A    between atoms: _344  and  _345
REMARK  142  A    between atoms: _344  and  _347
REMARK  143  A    between atoms: _350  and  _352
REMARK  144  A    between atoms: _352  and  _353
REMARK  145  A    between atoms: _352  and  _355
REMARK  146  A    between atoms: _355  and  _356
REMARK  147  A    between atoms: _356  and  _357
REMARK  148  A    between atoms: _359  and  _361
REMARK  149  A    between atoms: _361  and  _362
REMARK  150  A    between atoms: _361  and  _364
REMARK  151  A    between atoms: _364  and  _365
REMARK  152  A    between atoms: _368  and  _370
REMARK  153  A    between atoms: _370  and  _371
REMARK  154  A    between atoms: _373  and  _375
REMARK  155  A    between atoms: _375  and  _376
REMARK  156  A    between atoms: _378  and  _380
REMARK  157  A    between atoms: _380  and  _381
REMARK  158  A    between atoms: _380  and  _383
REMARK  159  A    between atoms: _383  and  _384
REMARK  160  A    between atoms: _387  and  _389
REMARK  161  A    between atoms: _389  and  _390
REMARK  162  A    between atoms: _392  and  _394
REMARK  163  A    between atoms: _394  and  _395
REMARK  164  A    between atoms: _397  and  _399
REMARK  165  A    between atoms: _399  and  _400
REMARK  166  A    between atoms: _399  and  _402
REMARK  167  A    between atoms: _402  and  _403
REMARK  168  A    between atoms: _409  and  _411
REMARK  169  A    between atoms: _411  and  _412
REMARK  170  A    between atoms: _411  and  _414
REMARK  171  A    between atoms: _414  and  _415
REMARK  172  A    between atoms: _418  and  _420
REMARK  173  A    between atoms: _420  and  _421
REMARK  174  A    between atoms: _420  and  _423
REMARK  175  A    between atoms: _423  and  _424
REMARK  176  A    between atoms: _428  and  _429
REMARK  177  A    between atoms: _434  and  _436
REMARK  178  A    between atoms: _436  and  _437
REMARK  179  A    between atoms: _436  and  _439
REMARK  180  A    between atoms: _439  and  _440
REMARK  181  A    between atoms: _444  and  _445
REMARK  182  A    between atoms: _450  and  _452
REMARK  183  A    between atoms: _452  and  _453
REMARK  184  A    between atoms: _452  and  _455
REMARK  185  A    between atoms: _458  and  _460
REMARK  186  A    between atoms: _460  and  _461
REMARK  187  A    between atoms: _460  and  _463
REMARK  188  A    between atoms: _463  and  _464
REMARK  189  A    between atoms: _469  and  _471
REMARK  190  A    between atoms: _471  and  _472
REMARK  191  A    between atoms: _471  and  _474
REMARK  192  A    between atoms: _474  and  _475
REMARK  193  A    between atoms: _478  and  _480
REMARK  194  A    between atoms: _480  and  _481
REMARK  195  A    between atoms: _483  and  _485
REMARK  196  A    between atoms: _485  and  _486
REMARK  197  A    between atoms: _485  and  _488
REMARK  198  A    between atoms: _488  and  _489
REMARK  199  A    between atoms: _489  and  _490
REMARK  200  A    between atoms: _490  and  _491
REMARK                            x       y       z     vdW  Elec       q    Type
REMARK                         _______ _______ _______ _____ _____    ______ ____
ROOT
ATOM      1  CB  ARG A   2     -12.010  25.581  19.654  0.00  0.00    +0.031 C 
ENDROOT
BRANCH   1   2
ATOM      2  CA  ARG A   2     -13.199  24.700  19.348  0.00  0.00    +0.137 C 
BRANCH   2   4
ATOM      3  C   GLY A   1     -14.208  22.636  19.784  0.00  0.00    +0.240 C 
ATOM      4  N   ARG A   2     -13.132  23.373  19.884  0.00  0.00    -0.298 N 
ATOM      5  H   ARG A   2     -12.266  23.012  20.333  0.00  0.00    +0.150 HD
ATOM      6  O   GLY A   1     -15.208  23.039  19.215  0.00  0.00    -0.274 OA
BRANCH   3   7
ATOM      7  CA  GLY A   1     -14.123  21.293  20.439  0.00  0.00    +0.169 C 
BRANCH   7   8
ATOM      8  N   GLY A   1     -15.350  20.515  20.362  0.00  0.00    -0.236 NA
ATOM      9  H   GLY A   1     -15.511  19.971  19.490  0.00  0.00    +0.142 HD
ENDBRANCH   7   8
ENDBRANCH   3   7
ENDBRANCH   2   4
BRANCH   2  10
ATOM     10  C   ARG A   2     -13.431  24.800  17.879  0.00  0.00    +0.227 C 
ATOM     11  O   ARG A   2     -13.867  25.850  17.439  0.00  0.00    -0.286 OA
ENDBRANCH   2  10
ENDBRANCH   1   2
BRANCH   1  12
ATOM     12  CG  ARG A   2     -11.690  25.706  21.123  0.00  0.00    +0.045 C 
BRANCH  12  13
ATOM     13  CD  ARG A   2     -10.497  26.629  21.289  0.00  0.00    +0.174 C 
BRANCH  13  14
ATOM     14  NE  ARG A   2      -9.225  26.001  20.955  0.00  0.00    -0.265 N 
ATOM     15  HE  ARG A   2      -8.868  25.263  21.594  0.00  0.00    +0.259 HD
ATOM     16  CZ  ARG A   2      -8.500  26.301  19.906  0.00  0.00    +0.342 C 
ATOM     17  NH2 ARG A   2      -7.348  25.700  19.671  0.00  0.00    -0.292 N 
ATOM     18 HH21 ARG A   2      -6.999  24.971  20.326  0.00  0.00    +0.255 HD
ATOM     19 HH22 ARG A   2      -6.790  25.955  18.831  0.00  0.00    +0.255 HD
ATOM     20  NH1 ARG A   2      -8.959  27.186  19.044  0.00  0.00    -0.292 N 
ATOM     21 HH11 ARG A   2      -9.884  27.635  19.202  0.00  0.00    +0.255 HD
ATOM     22 HH12 ARG A   2      -8.396  27.436  18.206  0.00  0.00    +0.255 HD
ENDBRANCH  13  14
ENDBRANCH  12  13
ENDBRANCH   1  12
TORSDOF 8
REMARK  Name = ../refined-set-2016/1hvh/1hvh_pocket.pdb
REMARK  200 active torsions:
REMARK  status: ('A' for Active; 'I' for Inactive)
REMARK    1  A    between atoms: _1  and  _3
REMARK    2  A    between atoms: _3  and  _4
REMARK    3  A    between atoms: _3  and  _6
REMARK    4  A    between atoms: _6  and  _7
REMARK    5  A    between atoms: _7  and  _8
REMARK    6  A    between atoms: _8  and  _9
REMARK    7  A    between atoms: _18  and  _20
REMARK    8  A    between atoms: _20  and  _21
REMARK    9  A    between atoms: _20  and  _23
REMARK   10  A    between atoms: _23  and  _24
REMARK   11  A    between atoms: _27  and  _29
REMARK   12  A    between atoms: _29  and  _30
REMARK   13  A    between atoms: _29  and  _32
REMARK   14  A    between atoms: _32  and  _33
REMARK   15  A    between atoms: _36  and  _38
REMARK   16  A    between atoms: _38  and  _39
REMARK   17  A    between atoms: _38  and  _41
REMARK   18  A    between atoms: _41  and  _42
REMARK   19  A    between atoms: _45  and  _47
REMARK   20  A    between atoms: _47  and  _48
REMARK   21  A    between atoms: _47  and  _50
REMARK   22  A    between atoms: _50  and  _51
REMARK   23  A    between atoms: _54  and  _56
REMARK   24  A    between atoms: _56  and  _57
REMARK   25  A    between atoms: _59  and  _61
REMARK   26  A    between atoms: _61  and  _62
REMARK   27  A    between atoms: _65  and  _67
REMARK   28  A    between atoms: _67  and  _68
REMARK   29  A    between atoms: _67  and  _70
REMARK   30  A    between atoms: _70  and  _71
REMARK   31  A    between atoms: _74  and  _76
REMARK   32  A    between atoms: _76  and  _77
REMARK   33  A    between atoms: _76  and  _79
REMARK   34  A    between atoms: _79  and  _80
REMARK   35  A    between atoms: _83  and  _85
REMARK   36  A    between atoms: _85  and  _86
REMARK   37  A    between atoms: _85  and  _88
REMARK   38  A    between atoms: _88  and  _89
REMARK   39  A    between atoms: _92  and  _94
REMARK   40  A    between atoms: _94  and  _95
REMARK   41  A    between atoms: _94  and  _97
REMARK   42  A    between atoms: _100  and  _102
REMARK   43  A    between atoms: _102  and  _103
REMARK   44  A    between atoms: _102  and  _105
REMARK   45  A    between atoms: _105  and  _106
REMARK   46  A    between atoms: _109  and  _111
REMARK   47  A    between atoms: _111  and  _112
REMARK   48  A    between atoms: _111  and  _114
REMARK   49  A    between atoms: _114  and  _115
REMARK   50  A    between atoms: _118  and  _120
REMARK   51  A    between atoms: _120  and  _121
REMARK   52  A    between atoms: _123  and  _125
REMARK   53  A    between atoms: _125  and  _126
REMARK   54  A    between atoms: _128  and  _130
REMARK   55  A    between atoms: _130  and  _131
REMARK   56  A    between atoms: _130  and  _133
REMARK   57  A    between atoms: _133  and  _134
REMARK   58  A    between atoms: _137  and  _139
REMARK   59  A    between atoms: _139  and  _140
REMARK   60  A    between atoms: _142  and  _144
REMARK   61  A    between atoms: _144  and  _145
REMARK   62  A    between atoms: _147  and  _149
REMARK   63  A    between atoms: _149  and  _150
REMARK   64  A    between atoms: _149  and  _152
REMARK   65  A    between atoms: _152  and  _153
REMARK   66  A    between atoms: _156  and  _158
REMARK   67  A    between atoms: _158  and  _159
REMARK   68  A    between atoms: _158  and  _161
REMARK   69  A    between atoms: _161  and  _162
REMARK   70  A    between atoms: _165  and  _167
REMARK   71  A    between atoms: _167  and  _168
REMARK   72  A    between atoms: _167  and  _170
REMARK   73  A    between atoms: _170  and  _171
REMARK   74  A    between atoms: _175  and  _176
REMARK   75  A    between atoms: _181  and  _183
REMARK   76  A    between atoms: _183  and  _184
REMARK   77  A    between atoms: _183  and  _186
REMARK   78  A    between atoms: _189  and  _191
REMARK   79  A    between atoms: _191  and  _192
REMARK   80  A    between atoms: _191  and  _194
REMARK   81  A    between atoms: _194  and  _195
REMARK   82  A    between atoms: _200  and  _202
REMARK   83  A    between atoms: _202  and  _203
REMARK   84  A    between atoms: _202  and  _205
REMARK   85  A    between atoms: _205  and  _206
REMARK   86  A    between atoms: _209  and  _211
REMARK   87  A    between atoms: _211  and  _212
REMARK   88  A    between atoms: _211  and  _214
REMARK   89  A    between atoms: _214  and  _215
REMARK   90  A    between atoms: _218  and  _220
REMARK   91  A    between atoms: _220  and  _221
REMARK   92  A    between atoms: _223  and  _225
REMARK   93  A    between atoms: _225  and  _226
REMARK   94  A    between atoms: _225  and  _228
REMARK   95  A    between atoms: _228  and  _229
REMARK   96  A    between atoms: _229  and  _230
REMARK   97  A    between atoms: _230  and  _231
REMARK   98  A    between atoms: _240  and  _242
REMARK   99  A    between atoms: _242  and  _243
REMARK  100  A    between atoms: _242  and  _245
REMARK  101  A    between atoms: _245  and  _246
REMARK  102  A    between atoms: _251  and  _253
REMARK  103  A    between atoms: _253  and  _254
REMARK  104  A    between atoms: _253  and  _256
REMARK  105  A    between atoms: _256  and  _257
REMARK  106  A    between atoms: _257  and  _258
REMARK  107  A    between atoms: _258  and  _259
REMARK  108  A    between atoms: _268  and  _270
REMARK  109  A    between atoms: _270  and  _271
REMARK  110  A    between atoms: _270  and  _273
REMARK  111  A    between atoms: _273  and  _274
REMARK  112  A    between atoms: _277  and  _279
REMARK  113  A    between atoms: _279  and  _280
REMARK  114  A    between atoms: _279  and  _282
REMARK  115  A    between atoms: _282  and  _283
REMARK  116  A    between atoms: _286  and  _288
REMARK  117  A    between atoms: _288  and  _289
REMARK  118  A    between atoms: _288  and  _291
REMARK  119  A    between atoms: _291  and  _292
REMARK  120  A    between atoms: _295  and  _297
REMARK  121  A    between atoms: _297  and  _298
REMARK  122  A    between atoms: _297  and  _300
REMARK  123  A    between atoms: _300  and  _301
REMARK  124  A    between atoms: _304  and  _306
REMARK  125  A    between atoms: _306  and  _307
REMARK  126  A    between atoms: _309  and  _311
REMARK  127  A    between atoms: _311  and  _312
REMARK  128  A    between atoms: _315  and  _317
REMARK  129  A    between atoms: _317  and  _318
REMARK  130  A    between atoms: _317  and  _320
REMARK  131  A    between atoms: _320  and  _321
REMARK  132  A    between atoms: _324  and  _326
REMARK  133  A    between atoms: _326  and  _327
REMARK  134  A    between atoms: _326  and  _329
REMARK  135  A    between atoms: _329  and  _330
REMARK  136  A    between atoms: _333  and  _335
REMARK  137  A    between atoms: _335  and  _336
REMARK  138  A    between atoms: _335  and  _338
REMARK  139  A    between atoms: _338  and  _339
REMARK  140  A    between atoms: _342  and  _344
REMARK  141  A    between atoms: _344  and  _345
REMARK  142  A    between atoms: _344  and  _347
REMARK  143  A    between atoms: _350  and  _352
REMARK  144  A    between atoms: _352  and  _353
REMARK  145  A    between atoms: _352  and  _355
REMARK  146  A    between atoms: _355  and  _356
REMARK  147  A    between atoms: _356  and  _357
REMARK  148  A    between atoms: _359  and  _361
REMARK  149  A    between atoms: _361  and  _362
REMARK  150  A    between atoms: _361  and  _364
REMARK  151  A    between atoms: _364  and  _365
REMARK  152  A    between atoms: _368  and  _370
REMARK  153  A    between atoms: _370  and  _371
REMARK  154  A    between atoms: _373  and  _375
REMARK  155  A    between atoms: _375  and  _376
REMARK  156  A    between atoms: _378  and  _380
REMARK  157  A    between atoms: _380  and  _381
REMARK  158  A    between atoms: _380  and  _383
REMARK  159  A    between atoms: _383  and  _384
REMARK  160  A    between atoms: _387  and  _389
REMARK  161  A    between atoms: _389  and  _390
REMARK  162  A    between atoms: _392  and  _394
REMARK  163  A    between atoms: _394  and  _395
REMARK  164  A    between atoms: _397  and  _399
REMARK  165  A    between atoms: _399  and  _400
REMARK  166  A    between atoms: _399  and  _402
REMARK  167  A    between atoms: _402  and  _403
REMARK  168  A    between atoms: _409  and  _411
REMARK  169  A    between atoms: _411  and  _412
REMARK  170  A    between atoms: _411  and  _414
REMARK  171  A    between atoms: _414  and  _415
REMARK  172  A    between atoms: _418  and  _420
REMARK  173  A    between atoms: _420  and  _421
REMARK  174  A    between atoms: _420  and  _423
REMARK  175  A    between atoms: _423  and  _424
REMARK  176  A    between atoms: _428  and  _429
REMARK  177  A    between atoms: _434  and  _436
REMARK  178  A    between atoms: _436  and  _437
REMARK  179  A    between atoms: _436  and  _439
REMARK  180  A    between atoms: _439  and  _440
REMARK  181  A    between atoms: _444  and  _445
REMARK  182  A    between atoms: _450  and  _452
REMARK  183  A    between atoms: _452  and  _453
REMARK  184  A    between atoms: _452  and  _455
REMARK  185  A    between atoms: _458  and  _460
REMARK  186  A    between atoms: _460  and  _461
REMARK  187  A    between atoms: _460  and  _463
REMARK  188  A    between atoms: _463  and  _464
REMARK  189  A    between atoms: _469  and  _471
REMARK  190  A    between atoms: _471  and  _472
REMARK  191  A    between atoms: _471  and  _474
REMARK  192  A    between atoms: _474  and  _475
REMARK  193  A    between atoms: _478  and  _480
REMARK  194  A    between atoms: _480  and  _481
REMARK  195  A    between atoms: _483  and  _485
REMARK  196  A    between atoms: _485  and  _486
REMARK  197  A    between atoms: _485  and  _488
REMARK  198  A    between atoms: _488  and  _489
REMARK  199  A    between atoms: _489  and  _490
REMARK  200  A    between atoms: _490  and  _491
REMARK                            x       y       z     vdW  Elec       q    Type
REMARK                         _______ _______ _______ _____ _____    ______ ____
ROOT
ATOM      1  O   HOH     1     -14.653  16.199  41.219  0.00  0.00    +0.000 OA
ENDROOT
TORSDOF 0
REMARK  Name = ../refined-set-2016/1hvh/1hvh_pocket.pdb
REMARK  200 active torsions:
REMARK  status: ('A' for Active; 'I' for Inactive)
REMARK    1  A    between atoms: _1  and  _3
REMARK    2  A    between atoms: _3  and  _4
REMARK    3  A    between atoms: _3  and  _6
REMARK    4  A    between atoms: _6  and  _7
REMARK    5  A    between atoms: _7  and  _8
REMARK    6  A    between atoms: _8  and  _9
REMARK    7  A    between atoms: _18  and  _20
REMARK    8  A    between atoms: _20  and  _21
REMARK    9  A    between atoms: _20  and  _23
REMARK   10  A    between atoms: _23  and  _24
REMARK   11  A    between atoms: _27  and  _29
REMARK   12  A    between atoms: _29  and  _30
REMARK   13  A    between atoms: _29  and  _32
REMARK   14  A    between atoms: _32  and  _33
REMARK   15  A    between atoms: _36  and  _38
REMARK   16  A    between atoms: _38  and  _39
REMARK   17  A    between atoms: _38  and  _41
REMARK   18  A    between atoms: _41  and  _42
REMARK   19  A    between atoms: _45  and  _47
REMARK   20  A    between atoms: _47  and  _48
REMARK   21  A    between atoms: _47  and  _50
REMARK   22  A    between atoms: _50  and  _51
REMARK   23  A    between atoms: _54  and  _56
REMARK   24  A    between atoms: _56  and  _57
REMARK   25  A    between atoms: _59  and  _61
REMARK   26  A    between atoms: _61  and  _62
REMARK   27  A    between atoms: _65  and  _67
REMARK   28  A    between atoms: _67  and  _68
REMARK   29  A    between atoms: _67  and  _70
REMARK   30  A    between atoms: _70  and  _71
REMARK   31  A    between atoms: _74  and  _76
REMARK   32  A    between atoms: _76  and  _77
REMARK   33  A    between atoms: _76  and  _79
REMARK   34  A    between atoms: _79  and  _80
REMARK   35  A    between atoms: _83  and  _85
REMARK   36  A    between atoms: _85  and  _86
REMARK   37  A    between atoms: _85  and  _88
REMARK   38  A    between atoms: _88  and  _89
REMARK   39  A    between atoms: _92  and  _94
REMARK   40  A    between atoms: _94  and  _95
REMARK   41  A    between atoms: _94  and  _97
REMARK   42  A    between atoms: _100  and  _102
REMARK   43  A    between atoms: _102  and  _103
REMARK   44  A    between atoms: _102  and  _105
REMARK   45  A    between atoms: _105  and  _106
REMARK   46  A    between atoms: _109  and  _111
REMARK   47  A    between atoms: _111  and  _112
REMARK   48  A    between atoms: _111  and  _114
REMARK   49  A    between atoms: _114  and  _115
REMARK   50  A    between atoms: _118  and  _120
REMARK   51  A    between atoms: _120  and  _121
REMARK   52  A    between atoms: _123  and  _125
REMARK   53  A    between atoms: _125  and  _126
REMARK   54  A    between atoms: _128  and  _130
REMARK   55  A    between atoms: _130  and  _131
REMARK   56  A    between atoms: _130  and  _133
REMARK   57  A    between atoms: _133  and  _134
REMARK   58  A    between atoms: _137  and  _139
REMARK   59  A    between atoms: _139  and  _140
REMARK   60  A    between atoms: _142  and  _144
REMARK   61  A    between atoms: _144  and  _145
REMARK   62  A    between atoms: _147  and  _149
REMARK   63  A    between atoms: _149  and  _150
REMARK   64  A    between atoms: _149  and  _152
REMARK   65  A    between atoms: _152  and  _153
REMARK   66  A    between atoms: _156  and  _158
REMARK   67  A    between atoms: _158  and  _159
REMARK   68  A    between atoms: _158  and  _161
REMARK   69  A    between atoms: _161  and  _162
REMARK   70  A    between atoms: _165  and  _167
REMARK   71  A    between atoms: _167  and  _168
REMARK   72  A    between atoms: _167  and  _170
REMARK   73  A    between atoms: _170  and  _171
REMARK   74  A    between atoms: _175  and  _176
REMARK   75  A    between atoms: _181  and  _183
REMARK   76  A    between atoms: _183  and  _184
REMARK   77  A    between atoms: _183  and  _186
REMARK   78  A    between atoms: _189  and  _191
REMARK   79  A    between atoms: _191  and  _192
REMARK   80  A    between atoms: _191  and  _194
REMARK   81  A    between atoms: _194  and  _195
REMARK   82  A    between atoms: _200  and  _202
REMARK   83  A    between atoms: _202  and  _203
REMARK   84  A    between atoms: _202  and  _205
REMARK   85  A    between atoms: _205  and  _206
REMARK   86  A    between atoms: _209  and  _211
REMARK   87  A    between atoms: _211  and  _212
REMARK   88  A    between atoms: _211  and  _214
REMARK   89  A    between atoms: _214  and  _215
REMARK   90  A    between atoms: _218  and  _220
REMARK   91  A    between atoms: _220  and  _221
REMARK   92  A    between atoms: _223  and  _225
REMARK   93  A    between atoms: _225  and  _226
REMARK   94  A    between atoms: _225  and  _228
REMARK   95  A    between atoms: _228  and  _229
REMARK   96  A    between atoms: _229  and  _230
REMARK   97  A    between atoms: _230  and  _231
REMARK   98  A    between atoms: _240  and  _242
REMARK   99  A    between atoms: _242  and  _243
REMARK  100  A    between atoms: _242  and  _245
REMARK  101  A    between atoms: _245  and  _246
REMARK  102  A    between atoms: _251  and  _253
REMARK  103  A    between atoms: _253  and  _254
REMARK  104  A    between atoms: _253  and  _256
REMARK  105  A    between atoms: _256  and  _257
REMARK  106  A    between atoms: _257  and  _258
REMARK  107  A    between atoms: _258  and  _259
REMARK  108  A    between atoms: _268  and  _270
REMARK  109  A    between atoms: _270  and  _271
REMARK  110  A    between atoms: _270  and  _273
REMARK  111  A    between atoms: _273  and  _274
REMARK  112  A    between atoms: _277  and  _279
REMARK  113  A    between atoms: _279  and  _280
REMARK  114  A    between atoms: _279  and  _282
REMARK  115  A    between atoms: _282  and  _283
REMARK  116  A    between atoms: _286  and  _288
REMARK  117  A    between atoms: _288  and  _289
REMARK  118  A    between atoms: _288  and  _291
REMARK  119  A    between atoms: _291  and  _292
REMARK  120  A    between atoms: _295  and  _297
REMARK  121  A    between atoms: _297  and  _298
REMARK  122  A    between atoms: _297  and  _300
REMARK  123  A    between atoms: _300  and  _301
REMARK  124  A    between atoms: _304  and  _306
REMARK  125  A    between atoms: _306  and  _307
REMARK  126  A    between atoms: _309  and  _311
REMARK  127  A    between atoms: _311  and  _312
REMARK  128  A    between atoms: _315  and  _317
REMARK  129  A    between atoms: _317  and  _318
REMARK  130  A    between atoms: _317  and  _320
REMARK  131  A    between atoms: _320  and  _321
REMARK  132  A    between atoms: _324  and  _326
REMARK  133  A    between atoms: _326  and  _327
REMARK  134  A    between atoms: _326  and  _329
REMARK  135  A    between atoms: _329  and  _330
REMARK  136  A    between atoms: _333  and  _335
REMARK  137  A    between atoms: _335  and  _336
REMARK  138  A    between atoms: _335  and  _338
REMARK  139  A    between atoms: _338  and  _339
REMARK  140  A    between atoms: _342  and  _344
REMARK  141  A    between atoms: _344  and  _345
REMARK  142  A    between atoms: _344  and  _347
REMARK  143  A    between atoms: _350  and  _352
REMARK  144  A    between atoms: _352  and  _353
REMARK  145  A    between atoms: _352  and  _355
REMARK  146  A    between atoms: _355  and  _356
REMARK  147  A    between atoms: _356  and  _357
REMARK  148  A    between atoms: _359  and  _361
REMARK  149  A    between atoms: _361  and  _362
REMARK  150  A    between atoms: _361  and  _364
REMARK  151  A    between atoms: _364  and  _365
REMARK  152  A    between atoms: _368  and  _370
REMARK  153  A    between atoms: _370  and  _371
REMARK  154  A    between atoms: _373  and  _375
REMARK  155  A    between atoms: _375  and  _376
REMARK  156  A    between atoms: _378  and  _380
REMARK  157  A    between atoms: _380  and  _381
REMARK  158  A    between atoms: _380  and  _383
REMARK  159  A    between atoms: _383  and  _384
REMARK  160  A    between atoms: _387  and  _389
REMARK  161  A    between atoms: _389  and  _390
REMARK  162  A    between atoms: _392  and  _394
REMARK  163  A    between atoms: _394  and  _395
REMARK  164  A    between atoms: _397  and  _399
REMARK  165  A    between atoms: _399  and  _400
REMARK  166  A    between atoms: _399  and  _402
REMARK  167  A    between atoms: _402  and  _403
REMARK  168  A    between atoms: _409  and  _411
REMARK  169  A    between atoms: _411  and  _412
REMARK  170  A    between atoms: _411  and  _414
REMARK  171  A    between atoms: _414  and  _415
REMARK  172  A    between atoms: _418  and  _420
REMARK  173  A    between atoms: _420  and  _421
REMARK  174  A    between atoms: _420  and  _423
REMARK  175  A    between atoms: _423  and  _424
REMARK  176  A    between atoms: _428  and  _429
REMARK  177  A    between atoms: _434  and  _436
REMARK  178  A    between atoms: _436  and  _437
REMARK  179  A    between atoms: _436  and  _439
REMARK  180  A    between atoms: _439  and  _440
REMARK  181  A    between atoms: _444  and  _445
REMARK  182  A    between atoms: _450  and  _452
REMARK  183  A    between atoms: _452  and  _453
REMARK  184  A    between atoms: _452  and  _455
REMARK  185  A    between atoms: _458  and  _460
REMARK  186  A    between atoms: _460  and  _461
REMARK  187  A    between atoms: _460  and  _463
REMARK  188  A    between atoms: _463  and  _464
REMARK  189  A    between atoms: _469  and  _471
REMARK  190  A    between atoms: _471  and  _472
REMARK  191  A    between atoms: _471  and  _474
REMARK  192  A    between atoms: _474  and  _475
REMARK  193  A    between atoms: _478  and  _480
REMARK  194  A    between atoms: _480  and  _481
REMARK  195  A    between atoms: _483  and  _485
REMARK  196  A    between atoms: _485  and  _486
REMARK  197  A    between atoms: _485  and  _488
REMARK  198  A    between atoms: _488  and  _489
REMARK  199  A    between atoms: _489  and  _490
REMARK  200  A    between atoms: _490  and  _491
REMARK                            x       y       z     vdW  Elec       q    Type
REMARK                         _______ _______ _______ _____ _____    ______ ____
ROOT
ATOM      1  O   HOH     1      -9.204  19.512  40.735  0.00  0.00    +0.000 OA
ENDROOT
TORSDOF 0
REMARK  Name = ../refined-set-2016/1hvh/1hvh_pocket.pdb
REMARK  200 active torsions:
REMARK  status: ('A' for Active; 'I' for Inactive)
REMARK    1  A    between atoms: _1  and  _3
REMARK    2  A    between atoms: _3  and  _4
REMARK    3  A    between atoms: _3  and  _6
REMARK    4  A    between atoms: _6  and  _7
REMARK    5  A    between atoms: _7  and  _8
REMARK    6  A    between atoms: _8  and  _9
REMARK    7  A    between atoms: _18  and  _20
REMARK    8  A    between atoms: _20  and  _21
REMARK    9  A    between atoms: _20  and  _23
REMARK   10  A    between atoms: _23  and  _24
REMARK   11  A    between atoms: _27  and  _29
REMARK   12  A    between atoms: _29  and  _30
REMARK   13  A    between atoms: _29  and  _32
REMARK   14  A    between atoms: _32  and  _33
REMARK   15  A    between atoms: _36  and  _38
REMARK   16  A    between atoms: _38  and  _39
REMARK   17  A    between atoms: _38  and  _41
REMARK   18  A    between atoms: _41  and  _42
REMARK   19  A    between atoms: _45  and  _47
REMARK   20  A    between atoms: _47  and  _48
REMARK   21  A    between atoms: _47  and  _50
REMARK   22  A    between atoms: _50  and  _51
REMARK   23  A    between atoms: _54  and  _56
REMARK   24  A    between atoms: _56  and  _57
REMARK   25  A    between atoms: _59  and  _61
REMARK   26  A    between atoms: _61  and  _62
REMARK   27  A    between atoms: _65  and  _67
REMARK   28  A    between atoms: _67  and  _68
REMARK   29  A    between atoms: _67  and  _70
REMARK   30  A    between atoms: _70  and  _71
REMARK   31  A    between atoms: _74  and  _76
REMARK   32  A    between atoms: _76  and  _77
REMARK   33  A    between atoms: _76  and  _79
REMARK   34  A    between atoms: _79  and  _80
REMARK   35  A    between atoms: _83  and  _85
REMARK   36  A    between atoms: _85  and  _86
REMARK   37  A    between atoms: _85  and  _88
REMARK   38  A    between atoms: _88  and  _89
REMARK   39  A    between atoms: _92  and  _94
REMARK   40  A    between atoms: _94  and  _95
REMARK   41  A    between atoms: _94  and  _97
REMARK   42  A    between atoms: _100  and  _102
REMARK   43  A    between atoms: _102  and  _103
REMARK   44  A    between atoms: _102  and  _105
REMARK   45  A    between atoms: _105  and  _106
REMARK   46  A    between atoms: _109  and  _111
REMARK   47  A    between atoms: _111  and  _112
REMARK   48  A    between atoms: _111  and  _114
REMARK   49  A    between atoms: _114  and  _115
REMARK   50  A    between atoms: _118  and  _120
REMARK   51  A    between atoms: _120  and  _121
REMARK   52  A    between atoms: _123  and  _125
REMARK   53  A    between atoms: _125  and  _126
REMARK   54  A    between atoms: _128  and  _130
REMARK   55  A    between atoms: _130  and  _131
REMARK   56  A    between atoms: _130  and  _133
REMARK   57  A    between atoms: _133  and  _134
REMARK   58  A    between atoms: _137  and  _139
REMARK   59  A    between atoms: _139  and  _140
REMARK   60  A    between atoms: _142  and  _144
REMARK   61  A    between atoms: _144  and  _145
REMARK   62  A    between atoms: _147  and  _149
REMARK   63  A    between atoms: _149  and  _150
REMARK   64  A    between atoms: _149  and  _152
REMARK   65  A    between atoms: _152  and  _153
REMARK   66  A    between atoms: _156  and  _158
REMARK   67  A    between atoms: _158  and  _159
REMARK   68  A    between atoms: _158  and  _161
REMARK   69  A    between atoms: _161  and  _162
REMARK   70  A    between atoms: _165  and  _167
REMARK   71  A    between atoms: _167  and  _168
REMARK   72  A    between atoms: _167  and  _170
REMARK   73  A    between atoms: _170  and  _171
REMARK   74  A    between atoms: _175  and  _176
REMARK   75  A    between atoms: _181  and  _183
REMARK   76  A    between atoms: _183  and  _184
REMARK   77  A    between atoms: _183  and  _186
REMARK   78  A    between atoms: _189  and  _191
REMARK   79  A    between atoms: _191  and  _192
REMARK   80  A    between atoms: _191  and  _194
REMARK   81  A    between atoms: _194  and  _195
REMARK   82  A    between atoms: _200  and  _202
REMARK   83  A    between atoms: _202  and  _203
REMARK   84  A    between atoms: _202  and  _205
REMARK   85  A    between atoms: _205  and  _206
REMARK   86  A    between atoms: _209  and  _211
REMARK   87  A    between atoms: _211  and  _212
REMARK   88  A    between atoms: _211  and  _214
REMARK   89  A    between atoms: _214  and  _215
REMARK   90  A    between atoms: _218  and  _220
REMARK   91  A    between atoms: _220  and  _221
REMARK   92  A    between atoms: _223  and  _225
REMARK   93  A    between atoms: _225  and  _226
REMARK   94  A    between atoms: _225  and  _228
REMARK   95  A    between atoms: _228  and  _229
REMARK   96  A    between atoms: _229  and  _230
REMARK   97  A    between atoms: _230  and  _231
REMARK   98  A    between atoms: _240  and  _242
REMARK   99  A    between atoms: _242  and  _243
REMARK  100  A    between atoms: _242  and  _245
REMARK  101  A    between atoms: _245  and  _246
REMARK  102  A    between atoms: _251  and  _253
REMARK  103  A    between atoms: _253  and  _254
REMARK  104  A    between atoms: _253  and  _256
REMARK  105  A    between atoms: _256  and  _257
REMARK  106  A    between atoms: _257  and  _258
REMARK  107  A    between atoms: _258  and  _259
REMARK  108  A    between atoms: _268  and  _270
REMARK  109  A    between atoms: _270  and  _271
REMARK  110  A    between atoms: _270  and  _273
REMARK  111  A    between atoms: _273  and  _274
REMARK  112  A    between atoms: _277  and  _279
REMARK  113  A    between atoms: _279  and  _280
REMARK  114  A    between atoms: _279  and  _282
REMARK  115  A    between atoms: _282  and  _283
REMARK  116  A    between atoms: _286  and  _288
REMARK  117  A    between atoms: _288  and  _289
REMARK  118  A    between atoms: _288  and  _291
REMARK  119  A    between atoms: _291  and  _292
REMARK  120  A    between atoms: _295  and  _297
REMARK  121  A    between atoms: _297  and  _298
REMARK  122  A    between atoms: _297  and  _300
REMARK  123  A    between atoms: _300  and  _301
REMARK  124  A    between atoms: _304  and  _306
REMARK  125  A    between atoms: _306  and  _307
REMARK  126  A    between atoms: _309  and  _311
REMARK  127  A    between atoms: _311  and  _312
REMARK  128  A    between atoms: _315  and  _317
REMARK  129  A    between atoms: _317  and  _318
REMARK  130  A    between atoms: _317  and  _320
REMARK  131  A    between atoms: _320  and  _321
REMARK  132  A    between atoms: _324  and  _326
REMARK  133  A    between atoms: _326  and  _327
REMARK  134  A    between atoms: _326  and  _329
REMARK  135  A    between atoms: _329  and  _330
REMARK  136  A    between atoms: _333  and  _335
REMARK  137  A    between atoms: _335  and  _336
REMARK  138  A    between atoms: _335  and  _338
REMARK  139  A    between atoms: _338  and  _339
REMARK  140  A    between atoms: _342  and  _344
REMARK  141  A    between atoms: _344  and  _345
REMARK  142  A    between atoms: _344  and  _347
REMARK  143  A    between atoms: _350  and  _352
REMARK  144  A    between atoms: _352  and  _353
REMARK  145  A    between atoms: _352  and  _355
REMARK  146  A    between atoms: _355  and  _356
REMARK  147  A    between atoms: _356  and  _357
REMARK  148  A    between atoms: _359  and  _361
REMARK  149  A    between atoms: _361  and  _362
REMARK  150  A    between atoms: _361  and  _364
REMARK  151  A    between atoms: _364  and  _365
REMARK  152  A    between atoms: _368  and  _370
REMARK  153  A    between atoms: _370  and  _371
REMARK  154  A    between atoms: _373  and  _375
REMARK  155  A    between atoms: _375  and  _376
REMARK  156  A    between atoms: _378  and  _380
REMARK  157  A    between atoms: _380  and  _381
REMARK  158  A    between atoms: _380  and  _383
REMARK  159  A    between atoms: _383  and  _384
REMARK  160  A    between atoms: _387  and  _389
REMARK  161  A    between atoms: _389  and  _390
REMARK  162  A    between atoms: _392  and  _394
REMARK  163  A    between atoms: _394  and  _395
REMARK  164  A    between atoms: _397  and  _399
REMARK  165  A    between atoms: _399  and  _400
REMARK  166  A    between atoms: _399  and  _402
REMARK  167  A    between atoms: _402  and  _403
REMARK  168  A    between atoms: _409  and  _411
REMARK  169  A    between atoms: _411  and  _412
REMARK  170  A    between atoms: _411  and  _414
REMARK  171  A    between atoms: _414  and  _415
REMARK  172  A    between atoms: _418  and  _420
REMARK  173  A    between atoms: _420  and  _421
REMARK  174  A    between atoms: _420  and  _423
REMARK  175  A    between atoms: _423  and  _424
REMARK  176  A    between atoms: _428  and  _429
REMARK  177  A    between atoms: _434  and  _436
REMARK  178  A    between atoms: _436  and  _437
REMARK  179  A    between atoms: _436  and  _439
REMARK  180  A    between atoms: _439  and  _440
REMARK  181  A    between atoms: _444  and  _445
REMARK  182  A    between atoms: _450  and  _452
REMARK  183  A    between atoms: _452  and  _453
REMARK  184  A    between atoms: _452  and  _455
REMARK  185  A    between atoms: _458  and  _460
REMARK  186  A    between atoms: _460  and  _461
REMARK  187  A    between atoms: _460  and  _463
REMARK  188  A    between atoms: _463  and  _464
REMARK  189  A    between atoms: _469  and  _471
REMARK  190  A    between atoms: _471  and  _472
REMARK  191  A    between atoms: _471  and  _474
REMARK  192  A    between atoms: _474  and  _475
REMARK  193  A    between atoms: _478  and  _480
REMARK  194  A    between atoms: _480  and  _481
REMARK  195  A    between atoms: _483  and  _485
REMARK  196  A    between atoms: _485  and  _486
REMARK  197  A    between atoms: _485  and  _488
REMARK  198  A    between atoms: _488  and  _489
REMARK  199  A    between atoms: _489  and  _490
REMARK  200  A    between atoms: _490  and  _491
REMARK                            x       y       z     vdW  Elec       q    Type
REMARK                         _______ _______ _______ _____ _____    ______ ____
ROOT
ATOM      1  O   HOH     1     -10.736  18.363  41.960  0.00  0.00    +0.000 OA
ENDROOT
TORSDOF 0
REMARK  Name = ../refined-set-2016/1hvh/1hvh_pocket.pdb
REMARK  200 active torsions:
REMARK  status: ('A' for Active; 'I' for Inactive)
REMARK    1  A    between atoms: _1  and  _3
REMARK    2  A    between atoms: _3  and  _4
REMARK    3  A    between atoms: _3  and  _6
REMARK    4  A    between atoms: _6  and  _7
REMARK    5  A    between atoms: _7  and  _8
REMARK    6  A    between atoms: _8  and  _9
REMARK    7  A    between atoms: _18  and  _20
REMARK    8  A    between atoms: _20  and  _21
REMARK    9  A    between atoms: _20  and  _23
REMARK   10  A    between atoms: _23  and  _24
REMARK   11  A    between atoms: _27  and  _29
REMARK   12  A    between atoms: _29  and  _30
REMARK   13  A    between atoms: _29  and  _32
REMARK   14  A    between atoms: _32  and  _33
REMARK   15  A    between atoms: _36  and  _38
REMARK   16  A    between atoms: _38  and  _39
REMARK   17  A    between atoms: _38  and  _41
REMARK   18  A    between atoms: _41  and  _42
REMARK   19  A    between atoms: _45  and  _47
REMARK   20  A    between atoms: _47  and  _48
REMARK   21  A    between atoms: _47  and  _50
REMARK   22  A    between atoms: _50  and  _51
REMARK   23  A    between atoms: _54  and  _56
REMARK   24  A    between atoms: _56  and  _57
REMARK   25  A    between atoms: _59  and  _61
REMARK   26  A    between atoms: _61  and  _62
REMARK   27  A    between atoms: _65  and  _67
REMARK   28  A    between atoms: _67  and  _68
REMARK   29  A    between atoms: _67  and  _70
REMARK   30  A    between atoms: _70  and  _71
REMARK   31  A    between atoms: _74  and  _76
REMARK   32  A    between atoms: _76  and  _77
REMARK   33  A    between atoms: _76  and  _79
REMARK   34  A    between atoms: _79  and  _80
REMARK   35  A    between atoms: _83  and  _85
REMARK   36  A    between atoms: _85  and  _86
REMARK   37  A    between atoms: _85  and  _88
REMARK   38  A    between atoms: _88  and  _89
REMARK   39  A    between atoms: _92  and  _94
REMARK   40  A    between atoms: _94  and  _95
REMARK   41  A    between atoms: _94  and  _97
REMARK   42  A    between atoms: _100  and  _102
REMARK   43  A    between atoms: _102  and  _103
REMARK   44  A    between atoms: _102  and  _105
REMARK   45  A    between atoms: _105  and  _106
REMARK   46  A    between atoms: _109  and  _111
REMARK   47  A    between atoms: _111  and  _112
REMARK   48  A    between atoms: _111  and  _114
REMARK   49  A    between atoms: _114  and  _115
REMARK   50  A    between atoms: _118  and  _120
REMARK   51  A    between atoms: _120  and  _121
REMARK   52  A    between atoms: _123  and  _125
REMARK   53  A    between atoms: _125  and  _126
REMARK   54  A    between atoms: _128  and  _130
REMARK   55  A    between atoms: _130  and  _131
REMARK   56  A    between atoms: _130  and  _133
REMARK   57  A    between atoms: _133  and  _134
REMARK   58  A    between atoms: _137  and  _139
REMARK   59  A    between atoms: _139  and  _140
REMARK   60  A    between atoms: _142  and  _144
REMARK   61  A    between atoms: _144  and  _145
REMARK   62  A    between atoms: _147  and  _149
REMARK   63  A    between atoms: _149  and  _150
REMARK   64  A    between atoms: _149  and  _152
REMARK   65  A    between atoms: _152  and  _153
REMARK   66  A    between atoms: _156  and  _158
REMARK   67  A    between atoms: _158  and  _159
REMARK   68  A    between atoms: _158  and  _161
REMARK   69  A    between atoms: _161  and  _162
REMARK   70  A    between atoms: _165  and  _167
REMARK   71  A    between atoms: _167  and  _168
REMARK   72  A    between atoms: _167  and  _170
REMARK   73  A    between atoms: _170  and  _171
REMARK   74  A    between atoms: _175  and  _176
REMARK   75  A    between atoms: _181  and  _183
REMARK   76  A    between atoms: _183  and  _184
REMARK   77  A    between atoms: _183  and  _186
REMARK   78  A    between atoms: _189  and  _191
REMARK   79  A    between atoms: _191  and  _192
REMARK   80  A    between atoms: _191  and  _194
REMARK   81  A    between atoms: _194  and  _195
REMARK   82  A    between atoms: _200  and  _202
REMARK   83  A    between atoms: _202  and  _203
REMARK   84  A    between atoms: _202  and  _205
REMARK   85  A    between atoms: _205  and  _206
REMARK   86  A    between atoms: _209  and  _211
REMARK   87  A    between atoms: _211  and  _212
REMARK   88  A    between atoms: _211  and  _214
REMARK   89  A    between atoms: _214  and  _215
REMARK   90  A    between atoms: _218  and  _220
REMARK   91  A    between atoms: _220  and  _221
REMARK   92  A    between atoms: _223  and  _225
REMARK   93  A    between atoms: _225  and  _226
REMARK   94  A    between atoms: _225  and  _228
REMARK   95  A    between atoms: _228  and  _229
REMARK   96  A    between atoms: _229  and  _230
REMARK   97  A    between atoms: _230  and  _231
REMARK   98  A    between atoms: _240  and  _242
REMARK   99  A    between atoms: _242  and  _243
REMARK  100  A    between atoms: _242  and  _245
REMARK  101  A    between atoms: _245  and  _246
REMARK  102  A    between atoms: _251  and  _253
REMARK  103  A    between atoms: _253  and  _254
REMARK  104  A    between atoms: _253  and  _256
REMARK  105  A    between atoms: _256  and  _257
REMARK  106  A    between atoms: _257  and  _258
REMARK  107  A    between atoms: _258  and  _259
REMARK  108  A    between atoms: _268  and  _270
REMARK  109  A    between atoms: _270  and  _271
REMARK  110  A    between atoms: _270  and  _273
REMARK  111  A    between atoms: _273  and  _274
REMARK  112  A    between atoms: _277  and  _279
REMARK  113  A    between atoms: _279  and  _280
REMARK  114  A    between atoms: _279  and  _282
REMARK  115  A    between atoms: _282  and  _283
REMARK  116  A    between atoms: _286  and  _288
REMARK  117  A    between atoms: _288  and  _289
REMARK  118  A    between atoms: _288  and  _291
REMARK  119  A    between atoms: _291  and  _292
REMARK  120  A    between atoms: _295  and  _297
REMARK  121  A    between atoms: _297  and  _298
REMARK  122  A    between atoms: _297  and  _300
REMARK  123  A    between atoms: _300  and  _301
REMARK  124  A    between atoms: _304  and  _306
REMARK  125  A    between atoms: _306  and  _307
REMARK  126  A    between atoms: _309  and  _311
REMARK  127  A    between atoms: _311  and  _312
REMARK  128  A    between atoms: _315  and  _317
REMARK  129  A    between atoms: _317  and  _318
REMARK  130  A    between atoms: _317  and  _320
REMARK  131  A    between atoms: _320  and  _321
REMARK  132  A    between atoms: _324  and  _326
REMARK  133  A    between atoms: _326  and  _327
REMARK  134  A    between atoms: _326  and  _329
REMARK  135  A    between atoms: _329  and  _330
REMARK  136  A    between atoms: _333  and  _335
REMARK  137  A    between atoms: _335  and  _336
REMARK  138  A    between atoms: _335  and  _338
REMARK  139  A    between atoms: _338  and  _339
REMARK  140  A    between atoms: _342  and  _344
REMARK  141  A    between atoms: _344  and  _345
REMARK  142  A    between atoms: _344  and  _347
REMARK  143  A    between atoms: _350  and  _352
REMARK  144  A    between atoms: _352  and  _353
REMARK  145  A    between atoms: _352  and  _355
REMARK  146  A    between atoms: _355  and  _356
REMARK  147  A    between atoms: _356  and  _357
REMARK  148  A    between atoms: _359  and  _361
REMARK  149  A    between atoms: _361  and  _362
REMARK  150  A    between atoms: _361  and  _364
REMARK  151  A    between atoms: _364  and  _365
REMARK  152  A    between atoms: _368  and  _370
REMARK  153  A    between atoms: _370  and  _371
REMARK  154  A    between atoms: _373  and  _375
REMARK  155  A    between atoms: _375  and  _376
REMARK  156  A    between atoms: _378  and  _380
REMARK  157  A    between atoms: _380  and  _381
REMARK  158  A    between atoms: _380  and  _383
REMARK  159  A    between atoms: _383  and  _384
REMARK  160  A    between atoms: _387  and  _389
REMARK  161  A    between atoms: _389  and  _390
REMARK  162  A    between atoms: _392  and  _394
REMARK  163  A    between atoms: _394  and  _395
REMARK  164  A    between atoms: _397  and  _399
REMARK  165  A    between atoms: _399  and  _400
REMARK  166  A    between atoms: _399  and  _402
REMARK  167  A    between atoms: _402  and  _403
REMARK  168  A    between atoms: _409  and  _411
REMARK  169  A    between atoms: _411  and  _412
REMARK  170  A    between atoms: _411  and  _414
REMARK  171  A    between atoms: _414  and  _415
REMARK  172  A    between atoms: _418  and  _420
REMARK  173  A    between atoms: _420  and  _421
REMARK  174  A    between atoms: _420  and  _423
REMARK  175  A    between atoms: _423  and  _424
REMARK  176  A    between atoms: _428  and  _429
REMARK  177  A    between atoms: _434  and  _436
REMARK  178  A    between atoms: _436  and  _437
REMARK  179  A    between atoms: _436  and  _439
REMARK  180  A    between atoms: _439  and  _440
REMARK  181  A    between atoms: _444  and  _445
REMARK  182  A    between atoms: _450  and  _452
REMARK  183  A    between atoms: _452  and  _453
REMARK  184  A    between atoms: _452  and  _455
REMARK  185  A    between atoms: _458  and  _460
REMARK  186  A    between atoms: _460  and  _461
REMARK  187  A    between atoms: _460  and  _463
REMARK  188  A    between atoms: _463  and  _464
REMARK  189  A    between atoms: _469  and  _471
REMARK  190  A    between atoms: _471  and  _472
REMARK  191  A    between atoms: _471  and  _474
REMARK  192  A    between atoms: _474  and  _475
REMARK  193  A    between atoms: _478  and  _480
REMARK  194  A    between atoms: _480  and  _481
REMARK  195  A    between atoms: _483  and  _485
REMARK  196  A    between atoms: _485  and  _486
REMARK  197  A    between atoms: _485  and  _488
REMARK  198  A    between atoms: _488  and  _489
REMARK  199  A    between atoms: _489  and  _490
REMARK  200  A    between atoms: _490  and  _491
REMARK                            x       y       z     vdW  Elec       q    Type
REMARK                         _______ _______ _______ _____ _____    ______ ____
ROOT
ATOM      1  O   HOH     1     -15.729  18.619  39.792  0.00  0.00    +0.000 OA
ENDROOT
TORSDOF 0
REMARK  Name = ../refined-set-2016/1hvh/1hvh_pocket.pdb
REMARK  200 active torsions:
REMARK  status: ('A' for Active; 'I' for Inactive)
REMARK    1  A    between atoms: _1  and  _3
REMARK    2  A    between atoms: _3  and  _4
REMARK    3  A    between atoms: _3  and  _6
REMARK    4  A    between atoms: _6  and  _7
REMARK    5  A    between atoms: _7  and  _8
REMARK    6  A    between atoms: _8  and  _9
REMARK    7  A    between atoms: _18  and  _20
REMARK    8  A    between atoms: _20  and  _21
REMARK    9  A    between atoms: _20  and  _23
REMARK   10  A    between atoms: _23  and  _24
REMARK   11  A    between atoms: _27  and  _29
REMARK   12  A    between atoms: _29  and  _30
REMARK   13  A    between atoms: _29  and  _32
REMARK   14  A    between atoms: _32  and  _33
REMARK   15  A    between atoms: _36  and  _38
REMARK   16  A    between atoms: _38  and  _39
REMARK   17  A    between atoms: _38  and  _41
REMARK   18  A    between atoms: _41  and  _42
REMARK   19  A    between atoms: _45  and  _47
REMARK   20  A    between atoms: _47  and  _48
REMARK   21  A    between atoms: _47  and  _50
REMARK   22  A    between atoms: _50  and  _51
REMARK   23  A    between atoms: _54  and  _56
REMARK   24  A    between atoms: _56  and  _57
REMARK   25  A    between atoms: _59  and  _61
REMARK   26  A    between atoms: _61  and  _62
REMARK   27  A    between atoms: _65  and  _67
REMARK   28  A    between atoms: _67  and  _68
REMARK   29  A    between atoms: _67  and  _70
REMARK   30  A    between atoms: _70  and  _71
REMARK   31  A    between atoms: _74  and  _76
REMARK   32  A    between atoms: _76  and  _77
REMARK   33  A    between atoms: _76  and  _79
REMARK   34  A    between atoms: _79  and  _80
REMARK   35  A    between atoms: _83  and  _85
REMARK   36  A    between atoms: _85  and  _86
REMARK   37  A    between atoms: _85  and  _88
REMARK   38  A    between atoms: _88  and  _89
REMARK   39  A    between atoms: _92  and  _94
REMARK   40  A    between atoms: _94  and  _95
REMARK   41  A    between atoms: _94  and  _97
REMARK   42  A    between atoms: _100  and  _102
REMARK   43  A    between atoms: _102  and  _103
REMARK   44  A    between atoms: _102  and  _105
REMARK   45  A    between atoms: _105  and  _106
REMARK   46  A    between atoms: _109  and  _111
REMARK   47  A    between atoms: _111  and  _112
REMARK   48  A    between atoms: _111  and  _114
REMARK   49  A    between atoms: _114  and  _115
REMARK   50  A    between atoms: _118  and  _120
REMARK   51  A    between atoms: _120  and  _121
REMARK   52  A    between atoms: _123  and  _125
REMARK   53  A    between atoms: _125  and  _126
REMARK   54  A    between atoms: _128  and  _130
REMARK   55  A    between atoms: _130  and  _131
REMARK   56  A    between atoms: _130  and  _133
REMARK   57  A    between atoms: _133  and  _134
REMARK   58  A    between atoms: _137  and  _139
REMARK   59  A    between atoms: _139  and  _140
REMARK   60  A    between atoms: _142  and  _144
REMARK   61  A    between atoms: _144  and  _145
REMARK   62  A    between atoms: _147  and  _149
REMARK   63  A    between atoms: _149  and  _150
REMARK   64  A    between atoms: _149  and  _152
REMARK   65  A    between atoms: _152  and  _153
REMARK   66  A    between atoms: _156  and  _158
REMARK   67  A    between atoms: _158  and  _159
REMARK   68  A    between atoms: _158  and  _161
REMARK   69  A    between atoms: _161  and  _162
REMARK   70  A    between atoms: _165  and  _167
REMARK   71  A    between atoms: _167  and  _168
REMARK   72  A    between atoms: _167  and  _170
REMARK   73  A    between atoms: _170  and  _171
REMARK   74  A    between atoms: _175  and  _176
REMARK   75  A    between atoms: _181  and  _183
REMARK   76  A    between atoms: _183  and  _184
REMARK   77  A    between atoms: _183  and  _186
REMARK   78  A    between atoms: _189  and  _191
REMARK   79  A    between atoms: _191  and  _192
REMARK   80  A    between atoms: _191  and  _194
REMARK   81  A    between atoms: _194  and  _195
REMARK   82  A    between atoms: _200  and  _202
REMARK   83  A    between atoms: _202  and  _203
REMARK   84  A    between atoms: _202  and  _205
REMARK   85  A    between atoms: _205  and  _206
REMARK   86  A    between atoms: _209  and  _211
REMARK   87  A    between atoms: _211  and  _212
REMARK   88  A    between atoms: _211  and  _214
REMARK   89  A    between atoms: _214  and  _215
REMARK   90  A    between atoms: _218  and  _220
REMARK   91  A    between atoms: _220  and  _221
REMARK   92  A    between atoms: _223  and  _225
REMARK   93  A    between atoms: _225  and  _226
REMARK   94  A    between atoms: _225  and  _228
REMARK   95  A    between atoms: _228  and  _229
REMARK   96  A    between atoms: _229  and  _230
REMARK   97  A    between atoms: _230  and  _231
REMARK   98  A    between atoms: _240  and  _242
REMARK   99  A    between atoms: _242  and  _243
REMARK  100  A    between atoms: _242  and  _245
REMARK  101  A    between atoms: _245  and  _246
REMARK  102  A    between atoms: _251  and  _253
REMARK  103  A    between atoms: _253  and  _254
REMARK  104  A    between atoms: _253  and  _256
REMARK  105  A    between atoms: _256  and  _257
REMARK  106  A    between atoms: _257  and  _258
REMARK  107  A    between atoms: _258  and  _259
REMARK  108  A    between atoms: _268  and  _270
REMARK  109  A    between atoms: _270  and  _271
REMARK  110  A    between atoms: _270  and  _273
REMARK  111  A    between atoms: _273  and  _274
REMARK  112  A    between atoms: _277  and  _279
REMARK  113  A    between atoms: _279  and  _280
REMARK  114  A    between atoms: _279  and  _282
REMARK  115  A    between atoms: _282  and  _283
REMARK  116  A    between atoms: _286  and  _288
REMARK  117  A    between atoms: _288  and  _289
REMARK  118  A    between atoms: _288  and  _291
REMARK  119  A    between atoms: _291  and  _292
REMARK  120  A    between atoms: _295  and  _297
REMARK  121  A    between atoms: _297  and  _298
REMARK  122  A    between atoms: _297  and  _300
REMARK  123  A    between atoms: _300  and  _301
REMARK  124  A    between atoms: _304  and  _306
REMARK  125  A    between atoms: _306  and  _307
REMARK  126  A    between atoms: _309  and  _311
REMARK  127  A    between atoms: _311  and  _312
REMARK  128  A    between atoms: _315  and  _317
REMARK  129  A    between atoms: _317  and  _318
REMARK  130  A    between atoms: _317  and  _320
REMARK  131  A    between atoms: _320  and  _321
REMARK  132  A    between atoms: _324  and  _326
REMARK  133  A    between atoms: _326  and  _327
REMARK  134  A    between atoms: _326  and  _329
REMARK  135  A    between atoms: _329  and  _330
REMARK  136  A    between atoms: _333  and  _335
REMARK  137  A    between atoms: _335  and  _336
REMARK  138  A    between atoms: _335  and  _338
REMARK  139  A    between atoms: _338  and  _339
REMARK  140  A    between atoms: _342  and  _344
REMARK  141  A    between atoms: _344  and  _345
REMARK  142  A    between atoms: _344  and  _347
REMARK  143  A    between atoms: _350  and  _352
REMARK  144  A    between atoms: _352  and  _353
REMARK  145  A    between atoms: _352  and  _355
REMARK  146  A    between atoms: _355  and  _356
REMARK  147  A    between atoms: _356  and  _357
REMARK  148  A    between atoms: _359  and  _361
REMARK  149  A    between atoms: _361  and  _362
REMARK  150  A    between atoms: _361  and  _364
REMARK  151  A    between atoms: _364  and  _365
REMARK  152  A    between atoms: _368  and  _370
REMARK  153  A    between atoms: _370  and  _371
REMARK  154  A    between atoms: _373  and  _375
REMARK  155  A    between atoms: _375  and  _376
REMARK  156  A    between atoms: _378  and  _380
REMARK  157  A    between atoms: _380  and  _381
REMARK  158  A    between atoms: _380  and  _383
REMARK  159  A    between atoms: _383  and  _384
REMARK  160  A    between atoms: _387  and  _389
REMARK  161  A    between atoms: _389  and  _390
REMARK  162  A    between atoms: _392  and  _394
REMARK  163  A    between atoms: _394  and  _395
REMARK  164  A    between atoms: _397  and  _399
REMARK  165  A    between atoms: _399  and  _400
REMARK  166  A    between atoms: _399  and  _402
REMARK  167  A    between atoms: _402  and  _403
REMARK  168  A    between atoms: _409  and  _411
REMARK  169  A    between atoms: _411  and  _412
REMARK  170  A    between atoms: _411  and  _414
REMARK  171  A    between atoms: _414  and  _415
REMARK  172  A    between atoms: _418  and  _420
REMARK  173  A    between atoms: _420  and  _421
REMARK  174  A    between atoms: _420  and  _423
REMARK  175  A    between atoms: _423  and  _424
REMARK  176  A    between atoms: _428  and  _429
REMARK  177  A    between atoms: _434  and  _436
REMARK  178  A    between atoms: _436  and  _437
REMARK  179  A    between atoms: _436  and  _439
REMARK  180  A    between atoms: _439  and  _440
REMARK  181  A    between atoms: _444  and  _445
REMARK  182  A    between atoms: _450  and  _452
REMARK  183  A    between atoms: _452  and  _453
REMARK  184  A    between atoms: _452  and  _455
REMARK  185  A    between atoms: _458  and  _460
REMARK  186  A    between atoms: _460  and  _461
REMARK  187  A    between atoms: _460  and  _463
REMARK  188  A    between atoms: _463  and  _464
REMARK  189  A    between atoms: _469  and  _471
REMARK  190  A    between atoms: _471  and  _472
REMARK  191  A    between atoms: _471  and  _474
REMARK  192  A    between atoms: _474  and  _475
REMARK  193  A    between atoms: _478  and  _480
REMARK  194  A    between atoms: _480  and  _481
REMARK  195  A    between atoms: _483  and  _485
REMARK  196  A    between atoms: _485  and  _486
REMARK  197  A    between atoms: _485  and  _488
REMARK  198  A    between atoms: _488  and  _489
REMARK  199  A    between atoms: _489  and  _490
REMARK  200  A    between atoms: _490  and  _491
REMARK                            x       y       z     vdW  Elec       q    Type
REMARK                         _______ _______ _______ _____ _____    ______ ____
ROOT
ATOM      1  O   HOH     1      -8.404  24.698  23.306  0.00  0.00    +0.000 OA
ENDROOT
TORSDOF 0
REMARK  Name = ../refined-set-2016/1hvh/1hvh_pocket.pdb
REMARK  200 active torsions:
REMARK  status: ('A' for Active; 'I' for Inactive)
REMARK    1  A    between atoms: _1  and  _3
REMARK    2  A    between atoms: _3  and  _4
REMARK    3  A    between atoms: _3  and  _6
REMARK    4  A    between atoms: _6  and  _7
REMARK    5  A    between atoms: _7  and  _8
REMARK    6  A    between atoms: _8  and  _9
REMARK    7  A    between atoms: _18  and  _20
REMARK    8  A    between atoms: _20  and  _21
REMARK    9  A    between atoms: _20  and  _23
REMARK   10  A    between atoms: _23  and  _24
REMARK   11  A    between atoms: _27  and  _29
REMARK   12  A    between atoms: _29  and  _30
REMARK   13  A    between atoms: _29  and  _32
REMARK   14  A    between atoms: _32  and  _33
REMARK   15  A    between atoms: _36  and  _38
REMARK   16  A    between atoms: _38  and  _39
REMARK   17  A    between atoms: _38  and  _41
REMARK   18  A    between atoms: _41  and  _42
REMARK   19  A    between atoms: _45  and  _47
REMARK   20  A    between atoms: _47  and  _48
REMARK   21  A    between atoms: _47  and  _50
REMARK   22  A    between atoms: _50  and  _51
REMARK   23  A    between atoms: _54  and  _56
REMARK   24  A    between atoms: _56  and  _57
REMARK   25  A    between atoms: _59  and  _61
REMARK   26  A    between atoms: _61  and  _62
REMARK   27  A    between atoms: _65  and  _67
REMARK   28  A    between atoms: _67  and  _68
REMARK   29  A    between atoms: _67  and  _70
REMARK   30  A    between atoms: _70  and  _71
REMARK   31  A    between atoms: _74  and  _76
REMARK   32  A    between atoms: _76  and  _77
REMARK   33  A    between atoms: _76  and  _79
REMARK   34  A    between atoms: _79  and  _80
REMARK   35  A    between atoms: _83  and  _85
REMARK   36  A    between atoms: _85  and  _86
REMARK   37  A    between atoms: _85  and  _88
REMARK   38  A    between atoms: _88  and  _89
REMARK   39  A    between atoms: _92  and  _94
REMARK   40  A    between atoms: _94  and  _95
REMARK   41  A    between atoms: _94  and  _97
REMARK   42  A    between atoms: _100  and  _102
REMARK   43  A    between atoms: _102  and  _103
REMARK   44  A    between atoms: _102  and  _105
REMARK   45  A    between atoms: _105  and  _106
REMARK   46  A    between atoms: _109  and  _111
REMARK   47  A    between atoms: _111  and  _112
REMARK   48  A    between atoms: _111  and  _114
REMARK   49  A    between atoms: _114  and  _115
REMARK   50  A    between atoms: _118  and  _120
REMARK   51  A    between atoms: _120  and  _121
REMARK   52  A    between atoms: _123  and  _125
REMARK   53  A    between atoms: _125  and  _126
REMARK   54  A    between atoms: _128  and  _130
REMARK   55  A    between atoms: _130  and  _131
REMARK   56  A    between atoms: _130  and  _133
REMARK   57  A    between atoms: _133  and  _134
REMARK   58  A    between atoms: _137  and  _139
REMARK   59  A    between atoms: _139  and  _140
REMARK   60  A    between atoms: _142  and  _144
REMARK   61  A    between atoms: _144  and  _145
REMARK   62  A    between atoms: _147  and  _149
REMARK   63  A    between atoms: _149  and  _150
REMARK   64  A    between atoms: _149  and  _152
REMARK   65  A    between atoms: _152  and  _153
REMARK   66  A    between atoms: _156  and  _158
REMARK   67  A    between atoms: _158  and  _159
REMARK   68  A    between atoms: _158  and  _161
REMARK   69  A    between atoms: _161  and  _162
REMARK   70  A    between atoms: _165  and  _167
REMARK   71  A    between atoms: _167  and  _168
REMARK   72  A    between atoms: _167  and  _170
REMARK   73  A    between atoms: _170  and  _171
REMARK   74  A    between atoms: _175  and  _176
REMARK   75  A    between atoms: _181  and  _183
REMARK   76  A    between atoms: _183  and  _184
REMARK   77  A    between atoms: _183  and  _186
REMARK   78  A    between atoms: _189  and  _191
REMARK   79  A    between atoms: _191  and  _192
REMARK   80  A    between atoms: _191  and  _194
REMARK   81  A    between atoms: _194  and  _195
REMARK   82  A    between atoms: _200  and  _202
REMARK   83  A    between atoms: _202  and  _203
REMARK   84  A    between atoms: _202  and  _205
REMARK   85  A    between atoms: _205  and  _206
REMARK   86  A    between atoms: _209  and  _211
REMARK   87  A    between atoms: _211  and  _212
REMARK   88  A    between atoms: _211  and  _214
REMARK   89  A    between atoms: _214  and  _215
REMARK   90  A    between atoms: _218  and  _220
REMARK   91  A    between atoms: _220  and  _221
REMARK   92  A    between atoms: _223  and  _225
REMARK   93  A    between atoms: _225  and  _226
REMARK   94  A    between atoms: _225  and  _228
REMARK   95  A    between atoms: _228  and  _229
REMARK   96  A    between atoms: _229  and  _230
REMARK   97  A    between atoms: _230  and  _231
REMARK   98  A    between atoms: _240  and  _242
REMARK   99  A    between atoms: _242  and  _243
REMARK  100  A    between atoms: _242  and  _245
REMARK  101  A    between atoms: _245  and  _246
REMARK  102  A    between atoms: _251  and  _253
REMARK  103  A    between atoms: _253  and  _254
REMARK  104  A    between atoms: _253  and  _256
REMARK  105  A    between atoms: _256  and  _257
REMARK  106  A    between atoms: _257  and  _258
REMARK  107  A    between atoms: _258  and  _259
REMARK  108  A    between atoms: _268  and  _270
REMARK  109  A    between atoms: _270  and  _271
REMARK  110  A    between atoms: _270  and  _273
REMARK  111  A    between atoms: _273  and  _274
REMARK  112  A    between atoms: _277  and  _279
REMARK  113  A    between atoms: _279  and  _280
REMARK  114  A    between atoms: _279  and  _282
REMARK  115  A    between atoms: _282  and  _283
REMARK  116  A    between atoms: _286  and  _288
REMARK  117  A    between atoms: _288  and  _289
REMARK  118  A    between atoms: _288  and  _291
REMARK  119  A    between atoms: _291  and  _292
REMARK  120  A    between atoms: _295  and  _297
REMARK  121  A    between atoms: _297  and  _298
REMARK  122  A    between atoms: _297  and  _300
REMARK  123  A    between atoms: _300  and  _301
REMARK  124  A    between atoms: _304  and  _306
REMARK  125  A    between atoms: _306  and  _307
REMARK  126  A    between atoms: _309  and  _311
REMARK  127  A    between atoms: _311  and  _312
REMARK  128  A    between atoms: _315  and  _317
REMARK  129  A    between atoms: _317  and  _318
REMARK  130  A    between atoms: _317  and  _320
REMARK  131  A    between atoms: _320  and  _321
REMARK  132  A    between atoms: _324  and  _326
REMARK  133  A    between atoms: _326  and  _327
REMARK  134  A    between atoms: _326  and  _329
REMARK  135  A    between atoms: _329  and  _330
REMARK  136  A    between atoms: _333  and  _335
REMARK  137  A    between atoms: _335  and  _336
REMARK  138  A    between atoms: _335  and  _338
REMARK  139  A    between atoms: _338  and  _339
REMARK  140  A    between atoms: _342  and  _344
REMARK  141  A    between atoms: _344  and  _345
REMARK  142  A    between atoms: _344  and  _347
REMARK  143  A    between atoms: _350  and  _352
REMARK  144  A    between atoms: _352  and  _353
REMARK  145  A    between atoms: _352  and  _355
REMARK  146  A    between atoms: _355  and  _356
REMARK  147  A    between atoms: _356  and  _357
REMARK  148  A    between atoms: _359  and  _361
REMARK  149  A    between atoms: _361  and  _362
REMARK  150  A    between atoms: _361  and  _364
REMARK  151  A    between atoms: _364  and  _365
REMARK  152  A    between atoms: _368  and  _370
REMARK  153  A    between atoms: _370  and  _371
REMARK  154  A    between atoms: _373  and  _375
REMARK  155  A    between atoms: _375  and  _376
REMARK  156  A    between atoms: _378  and  _380
REMARK  157  A    between atoms: _380  and  _381
REMARK  158  A    between atoms: _380  and  _383
REMARK  159  A    between atoms: _383  and  _384
REMARK  160  A    between atoms: _387  and  _389
REMARK  161  A    between atoms: _389  and  _390
REMARK  162  A    between atoms: _392  and  _394
REMARK  163  A    between atoms: _394  and  _395
REMARK  164  A    between atoms: _397  and  _399
REMARK  165  A    between atoms: _399  and  _400
REMARK  166  A    between atoms: _399  and  _402
REMARK  167  A    between atoms: _402  and  _403
REMARK  168  A    between atoms: _409  and  _411
REMARK  169  A    between atoms: _411  and  _412
REMARK  170  A    between atoms: _411  and  _414
REMARK  171  A    between atoms: _414  and  _415
REMARK  172  A    between atoms: _418  and  _420
REMARK  173  A    between atoms: _420  and  _421
REMARK  174  A    between atoms: _420  and  _423
REMARK  175  A    between atoms: _423  and  _424
REMARK  176  A    between atoms: _428  and  _429
REMARK  177  A    between atoms: _434  and  _436
REMARK  178  A    between atoms: _436  and  _437
REMARK  179  A    between atoms: _436  and  _439
REMARK  180  A    between atoms: _439  and  _440
REMARK  181  A    between atoms: _444  and  _445
REMARK  182  A    between atoms: _450  and  _452
REMARK  183  A    between atoms: _452  and  _453
REMARK  184  A    between atoms: _452  and  _455
REMARK  185  A    between atoms: _458  and  _460
REMARK  186  A    between atoms: _460  and  _461
REMARK  187  A    between atoms: _460  and  _463
REMARK  188  A    between atoms: _463  and  _464
REMARK  189  A    between atoms: _469  and  _471
REMARK  190  A    between atoms: _471  and  _472
REMARK  191  A    between atoms: _471  and  _474
REMARK  192  A    between atoms: _474  and  _475
REMARK  193  A    between atoms: _478  and  _480
REMARK  194  A    between atoms: _480  and  _481
REMARK  195  A    between atoms: _483  and  _485
REMARK  196  A    between atoms: _485  and  _486
REMARK  197  A    between atoms: _485  and  _488
REMARK  198  A    between atoms: _488  and  _489
REMARK  199  A    between atoms: _489  and  _490
REMARK  200  A    between atoms: _490  and  _491
REMARK                            x       y       z     vdW  Elec       q    Type
REMARK                         _______ _______ _______ _____ _____    ______ ____
ROOT
ATOM      1  O   HOH     1     -13.060  11.712  39.464  0.00  0.00    +0.000 OA
ENDROOT
TORSDOF 0
REMARK  Name = ../refined-set-2016/1hvh/1hvh_pocket.pdb
REMARK  200 active torsions:
REMARK  status: ('A' for Active; 'I' for Inactive)
REMARK    1  A    between atoms: _1  and  _3
REMARK    2  A    between atoms: _3  and  _4
REMARK    3  A    between atoms: _3  and  _6
REMARK    4  A    between atoms: _6  and  _7
REMARK    5  A    between atoms: _7  and  _8
REMARK    6  A    between atoms: _8  and  _9
REMARK    7  A    between atoms: _18  and  _20
REMARK    8  A    between atoms: _20  and  _21
REMARK    9  A    between atoms: _20  and  _23
REMARK   10  A    between atoms: _23  and  _24
REMARK   11  A    between atoms: _27  and  _29
REMARK   12  A    between atoms: _29  and  _30
REMARK   13  A    between atoms: _29  and  _32
REMARK   14  A    between atoms: _32  and  _33
REMARK   15  A    between atoms: _36  and  _38
REMARK   16  A    between atoms: _38  and  _39
REMARK   17  A    between atoms: _38  and  _41
REMARK   18  A    between atoms: _41  and  _42
REMARK   19  A    between atoms: _45  and  _47
REMARK   20  A    between atoms: _47  and  _48
REMARK   21  A    between atoms: _47  and  _50
REMARK   22  A    between atoms: _50  and  _51
REMARK   23  A    between atoms: _54  and  _56
REMARK   24  A    between atoms: _56  and  _57
REMARK   25  A    between atoms: _59  and  _61
REMARK   26  A    between atoms: _61  and  _62
REMARK   27  A    between atoms: _65  and  _67
REMARK   28  A    between atoms: _67  and  _68
REMARK   29  A    between atoms: _67  and  _70
REMARK   30  A    between atoms: _70  and  _71
REMARK   31  A    between atoms: _74  and  _76
REMARK   32  A    between atoms: _76  and  _77
REMARK   33  A    between atoms: _76  and  _79
REMARK   34  A    between atoms: _79  and  _80
REMARK   35  A    between atoms: _83  and  _85
REMARK   36  A    between atoms: _85  and  _86
REMARK   37  A    between atoms: _85  and  _88
REMARK   38  A    between atoms: _88  and  _89
REMARK   39  A    between atoms: _92  and  _94
REMARK   40  A    between atoms: _94  and  _95
REMARK   41  A    between atoms: _94  and  _97
REMARK   42  A    between atoms: _100  and  _102
REMARK   43  A    between atoms: _102  and  _103
REMARK   44  A    between atoms: _102  and  _105
REMARK   45  A    between atoms: _105  and  _106
REMARK   46  A    between atoms: _109  and  _111
REMARK   47  A    between atoms: _111  and  _112
REMARK   48  A    between atoms: _111  and  _114
REMARK   49  A    between atoms: _114  and  _115
REMARK   50  A    between atoms: _118  and  _120
REMARK   51  A    between atoms: _120  and  _121
REMARK   52  A    between atoms: _123  and  _125
REMARK   53  A    between atoms: _125  and  _126
REMARK   54  A    between atoms: _128  and  _130
REMARK   55  A    between atoms: _130  and  _131
REMARK   56  A    between atoms: _130  and  _133
REMARK   57  A    between atoms: _133  and  _134
REMARK   58  A    between atoms: _137  and  _139
REMARK   59  A    between atoms: _139  and  _140
REMARK   60  A    between atoms: _142  and  _144
REMARK   61  A    between atoms: _144  and  _145
REMARK   62  A    between atoms: _147  and  _149
REMARK   63  A    between atoms: _149  and  _150
REMARK   64  A    between atoms: _149  and  _152
REMARK   65  A    between atoms: _152  and  _153
REMARK   66  A    between atoms: _156  and  _158
REMARK   67  A    between atoms: _158  and  _159
REMARK   68  A    between atoms: _158  and  _161
REMARK   69  A    between atoms: _161  and  _162
REMARK   70  A    between atoms: _165  and  _167
REMARK   71  A    between atoms: _167  and  _168
REMARK   72  A    between atoms: _167  and  _170
REMARK   73  A    between atoms: _170  and  _171
REMARK   74  A    between atoms: _175  and  _176
REMARK   75  A    between atoms: _181  and  _183
REMARK   76  A    between atoms: _183  and  _184
REMARK   77  A    between atoms: _183  and  _186
REMARK   78  A    between atoms: _189  and  _191
REMARK   79  A    between atoms: _191  and  _192
REMARK   80  A    between atoms: _191  and  _194
REMARK   81  A    between atoms: _194  and  _195
REMARK   82  A    between atoms: _200  and  _202
REMARK   83  A    between atoms: _202  and  _203
REMARK   84  A    between atoms: _202  and  _205
REMARK   85  A    between atoms: _205  and  _206
REMARK   86  A    between atoms: _209  and  _211
REMARK   87  A    between atoms: _211  and  _212
REMARK   88  A    between atoms: _211  and  _214
REMARK   89  A    between atoms: _214  and  _215
REMARK   90  A    between atoms: _218  and  _220
REMARK   91  A    between atoms: _220  and  _221
REMARK   92  A    between atoms: _223  and  _225
REMARK   93  A    between atoms: _225  and  _226
REMARK   94  A    between atoms: _225  and  _228
REMARK   95  A    between atoms: _228  and  _229
REMARK   96  A    between atoms: _229  and  _230
REMARK   97  A    between atoms: _230  and  _231
REMARK   98  A    between atoms: _240  and  _242
REMARK   99  A    between atoms: _242  and  _243
REMARK  100  A    between atoms: _242  and  _245
REMARK  101  A    between atoms: _245  and  _246
REMARK  102  A    between atoms: _251  and  _253
REMARK  103  A    between atoms: _253  and  _254
REMARK  104  A    between atoms: _253  and  _256
REMARK  105  A    between atoms: _256  and  _257
REMARK  106  A    between atoms: _257  and  _258
REMARK  107  A    between atoms: _258  and  _259
REMARK  108  A    between atoms: _268  and  _270
REMARK  109  A    between atoms: _270  and  _271
REMARK  110  A    between atoms: _270  and  _273
REMARK  111  A    between atoms: _273  and  _274
REMARK  112  A    between atoms: _277  and  _279
REMARK  113  A    between atoms: _279  and  _280
REMARK  114  A    between atoms: _279  and  _282
REMARK  115  A    between atoms: _282  and  _283
REMARK  116  A    between atoms: _286  and  _288
REMARK  117  A    between atoms: _288  and  _289
REMARK  118  A    between atoms: _288  and  _291
REMARK  119  A    between atoms: _291  and  _292
REMARK  120  A    between atoms: _295  and  _297
REMARK  121  A    between atoms: _297  and  _298
REMARK  122  A    between atoms: _297  and  _300
REMARK  123  A    between atoms: _300  and  _301
REMARK  124  A    between atoms: _304  and  _306
REMARK  125  A    between atoms: _306  and  _307
REMARK  126  A    between atoms: _309  and  _311
REMARK  127  A    between atoms: _311  and  _312
REMARK  128  A    between atoms: _315  and  _317
REMARK  129  A    between atoms: _317  and  _318
REMARK  130  A    between atoms: _317  and  _320
REMARK  131  A    between atoms: _320  and  _321
REMARK  132  A    between atoms: _324  and  _326
REMARK  133  A    between atoms: _326  and  _327
REMARK  134  A    between atoms: _326  and  _329
REMARK  135  A    between atoms: _329  and  _330
REMARK  136  A    between atoms: _333  and  _335
REMARK  137  A    between atoms: _335  and  _336
REMARK  138  A    between atoms: _335  and  _338
REMARK  139  A    between atoms: _338  and  _339
REMARK  140  A    between atoms: _342  and  _344
REMARK  141  A    between atoms: _344  and  _345
REMARK  142  A    between atoms: _344  and  _347
REMARK  143  A    between atoms: _350  and  _352
REMARK  144  A    between atoms: _352  and  _353
REMARK  145  A    between atoms: _352  and  _355
REMARK  146  A    between atoms: _355  and  _356
REMARK  147  A    between atoms: _356  and  _357
REMARK  148  A    between atoms: _359  and  _361
REMARK  149  A    between atoms: _361  and  _362
REMARK  150  A    between atoms: _361  and  _364
REMARK  151  A    between atoms: _364  and  _365
REMARK  152  A    between atoms: _368  and  _370
REMARK  153  A    between atoms: _370  and  _371
REMARK  154  A    between atoms: _373  and  _375
REMARK  155  A    between atoms: _375  and  _376
REMARK  156  A    between atoms: _378  and  _380
REMARK  157  A    between atoms: _380  and  _381
REMARK  158  A    between atoms: _380  and  _383
REMARK  159  A    between atoms: _383  and  _384
REMARK  160  A    between atoms: _387  and  _389
REMARK  161  A    between atoms: _389  and  _390
REMARK  162  A    between atoms: _392  and  _394
REMARK  163  A    between atoms: _394  and  _395
REMARK  164  A    between atoms: _397  and  _399
REMARK  165  A    between atoms: _399  and  _400
REMARK  166  A    between atoms: _399  and  _402
REMARK  167  A    between atoms: _402  and  _403
REMARK  168  A    between atoms: _409  and  _411
REMARK  169  A    between atoms: _411  and  _412
REMARK  170  A    between atoms: _411  and  _414
REMARK  171  A    between atoms: _414  and  _415
REMARK  172  A    between atoms: _418  and  _420
REMARK  173  A    between atoms: _420  and  _421
REMARK  174  A    between atoms: _420  and  _423
REMARK  175  A    between atoms: _423  and  _424
REMARK  176  A    between atoms: _428  and  _429
REMARK  177  A    between atoms: _434  and  _436
REMARK  178  A    between atoms: _436  and  _437
REMARK  179  A    between atoms: _436  and  _439
REMARK  180  A    between atoms: _439  and  _440
REMARK  181  A    between atoms: _444  and  _445
REMARK  182  A    between atoms: _450  and  _452
REMARK  183  A    between atoms: _452  and  _453
REMARK  184  A    between atoms: _452  and  _455
REMARK  185  A    between atoms: _458  and  _460
REMARK  186  A    between atoms: _460  and  _461
REMARK  187  A    between atoms: _460  and  _463
REMARK  188  A    between atoms: _463  and  _464
REMARK  189  A    between atoms: _469  and  _471
REMARK  190  A    between atoms: _471  and  _472
REMARK  191  A    between atoms: _471  and  _474
REMARK  192  A    between atoms: _474  and  _475
REMARK  193  A    between atoms: _478  and  _480
REMARK  194  A    between atoms: _480  and  _481
REMARK  195  A    between atoms: _483  and  _485
REMARK  196  A    between atoms: _485  and  _486
REMARK  197  A    between atoms: _485  and  _488
REMARK  198  A    between atoms: _488  and  _489
REMARK  199  A    between atoms: _489  and  _490
REMARK  200  A    between atoms: _490  and  _491
REMARK                            x       y       z     vdW  Elec       q    Type
REMARK                         _______ _______ _______ _____ _____    ______ ____
ROOT
ATOM      1  O   HOH     1     -11.891   5.280  27.908  0.00  0.00    +0.000 OA
ENDROOT
TORSDOF 0
REMARK  Name = ../refined-set-2016/1hvh/1hvh_pocket.pdb
REMARK  200 active torsions:
REMARK  status: ('A' for Active; 'I' for Inactive)
REMARK    1  A    between atoms: _1  and  _3
REMARK    2  A    between atoms: _3  and  _4
REMARK    3  A    between atoms: _3  and  _6
REMARK    4  A    between atoms: _6  and  _7
REMARK    5  A    between atoms: _7  and  _8
REMARK    6  A    between atoms: _8  and  _9
REMARK    7  A    between atoms: _18  and  _20
REMARK    8  A    between atoms: _20  and  _21
REMARK    9  A    between atoms: _20  and  _23
REMARK   10  A    between atoms: _23  and  _24
REMARK   11  A    between atoms: _27  and  _29
REMARK   12  A    between atoms: _29  and  _30
REMARK   13  A    between atoms: _29  and  _32
REMARK   14  A    between atoms: _32  and  _33
REMARK   15  A    between atoms: _36  and  _38
REMARK   16  A    between atoms: _38  and  _39
REMARK   17  A    between atoms: _38  and  _41
REMARK   18  A    between atoms: _41  and  _42
REMARK   19  A    between atoms: _45  and  _47
REMARK   20  A    between atoms: _47  and  _48
REMARK   21  A    between atoms: _47  and  _50
REMARK   22  A    between atoms: _50  and  _51
REMARK   23  A    between atoms: _54  and  _56
REMARK   24  A    between atoms: _56  and  _57
REMARK   25  A    between atoms: _59  and  _61
REMARK   26  A    between atoms: _61  and  _62
REMARK   27  A    between atoms: _65  and  _67
REMARK   28  A    between atoms: _67  and  _68
REMARK   29  A    between atoms: _67  and  _70
REMARK   30  A    between atoms: _70  and  _71
REMARK   31  A    between atoms: _74  and  _76
REMARK   32  A    between atoms: _76  and  _77
REMARK   33  A    between atoms: _76  and  _79
REMARK   34  A    between atoms: _79  and  _80
REMARK   35  A    between atoms: _83  and  _85
REMARK   36  A    between atoms: _85  and  _86
REMARK   37  A    between atoms: _85  and  _88
REMARK   38  A    between atoms: _88  and  _89
REMARK   39  A    between atoms: _92  and  _94
REMARK   40  A    between atoms: _94  and  _95
REMARK   41  A    between atoms: _94  and  _97
REMARK   42  A    between atoms: _100  and  _102
REMARK   43  A    between atoms: _102  and  _103
REMARK   44  A    between atoms: _102  and  _105
REMARK   45  A    between atoms: _105  and  _106
REMARK   46  A    between atoms: _109  and  _111
REMARK   47  A    between atoms: _111  and  _112
REMARK   48  A    between atoms: _111  and  _114
REMARK   49  A    between atoms: _114  and  _115
REMARK   50  A    between atoms: _118  and  _120
REMARK   51  A    between atoms: _120  and  _121
REMARK   52  A    between atoms: _123  and  _125
REMARK   53  A    between atoms: _125  and  _126
REMARK   54  A    between atoms: _128  and  _130
REMARK   55  A    between atoms: _130  and  _131
REMARK   56  A    between atoms: _130  and  _133
REMARK   57  A    between atoms: _133  and  _134
REMARK   58  A    between atoms: _137  and  _139
REMARK   59  A    between atoms: _139  and  _140
REMARK   60  A    between atoms: _142  and  _144
REMARK   61  A    between atoms: _144  and  _145
REMARK   62  A    between atoms: _147  and  _149
REMARK   63  A    between atoms: _149  and  _150
REMARK   64  A    between atoms: _149  and  _152
REMARK   65  A    between atoms: _152  and  _153
REMARK   66  A    between atoms: _156  and  _158
REMARK   67  A    between atoms: _158  and  _159
REMARK   68  A    between atoms: _158  and  _161
REMARK   69  A    between atoms: _161  and  _162
REMARK   70  A    between atoms: _165  and  _167
REMARK   71  A    between atoms: _167  and  _168
REMARK   72  A    between atoms: _167  and  _170
REMARK   73  A    between atoms: _170  and  _171
REMARK   74  A    between atoms: _175  and  _176
REMARK   75  A    between atoms: _181  and  _183
REMARK   76  A    between atoms: _183  and  _184
REMARK   77  A    between atoms: _183  and  _186
REMARK   78  A    between atoms: _189  and  _191
REMARK   79  A    between atoms: _191  and  _192
REMARK   80  A    between atoms: _191  and  _194
REMARK   81  A    between atoms: _194  and  _195
REMARK   82  A    between atoms: _200  and  _202
REMARK   83  A    between atoms: _202  and  _203
REMARK   84  A    between atoms: _202  and  _205
REMARK   85  A    between atoms: _205  and  _206
REMARK   86  A    between atoms: _209  and  _211
REMARK   87  A    between atoms: _211  and  _212
REMARK   88  A    between atoms: _211  and  _214
REMARK   89  A    between atoms: _214  and  _215
REMARK   90  A    between atoms: _218  and  _220
REMARK   91  A    between atoms: _220  and  _221
REMARK   92  A    between atoms: _223  and  _225
REMARK   93  A    between atoms: _225  and  _226
REMARK   94  A    between atoms: _225  and  _228
REMARK   95  A    between atoms: _228  and  _229
REMARK   96  A    between atoms: _229  and  _230
REMARK   97  A    between atoms: _230  and  _231
REMARK   98  A    between atoms: _240  and  _242
REMARK   99  A    between atoms: _242  and  _243
REMARK  100  A    between atoms: _242  and  _245
REMARK  101  A    between atoms: _245  and  _246
REMARK  102  A    between atoms: _251  and  _253
REMARK  103  A    between atoms: _253  and  _254
REMARK  104  A    between atoms: _253  and  _256
REMARK  105  A    between atoms: _256  and  _257
REMARK  106  A    between atoms: _257  and  _258
REMARK  107  A    between atoms: _258  and  _259
REMARK  108  A    between atoms: _268  and  _270
REMARK  109  A    between atoms: _270  and  _271
REMARK  110  A    between atoms: _270  and  _273
REMARK  111  A    between atoms: _273  and  _274
REMARK  112  A    between atoms: _277  and  _279
REMARK  113  A    between atoms: _279  and  _280
REMARK  114  A    between atoms: _279  and  _282
REMARK  115  A    between atoms: _282  and  _283
REMARK  116  A    between atoms: _286  and  _288
REMARK  117  A    between atoms: _288  and  _289
REMARK  118  A    between atoms: _288  and  _291
REMARK  119  A    between atoms: _291  and  _292
REMARK  120  A    between atoms: _295  and  _297
REMARK  121  A    between atoms: _297  and  _298
REMARK  122  A    between atoms: _297  and  _300
REMARK  123  A    between atoms: _300  and  _301
REMARK  124  A    between atoms: _304  and  _306
REMARK  125  A    between atoms: _306  and  _307
REMARK  126  A    between atoms: _309  and  _311
REMARK  127  A    between atoms: _311  and  _312
REMARK  128  A    between atoms: _315  and  _317
REMARK  129  A    between atoms: _317  and  _318
REMARK  130  A    between atoms: _317  and  _320
REMARK  131  A    between atoms: _320  and  _321
REMARK  132  A    between atoms: _324  and  _326
REMARK  133  A    between atoms: _326  and  _327
REMARK  134  A    between atoms: _326  and  _329
REMARK  135  A    between atoms: _329  and  _330
REMARK  136  A    between atoms: _333  and  _335
REMARK  137  A    between atoms: _335  and  _336
REMARK  138  A    between atoms: _335  and  _338
REMARK  139  A    between atoms: _338  and  _339
REMARK  140  A    between atoms: _342  and  _344
REMARK  141  A    between atoms: _344  and  _345
REMARK  142  A    between atoms: _344  and  _347
REMARK  143  A    between atoms: _350  and  _352
REMARK  144  A    between atoms: _352  and  _353
REMARK  145  A    between atoms: _352  and  _355
REMARK  146  A    between atoms: _355  and  _356
REMARK  147  A    between atoms: _356  and  _357
REMARK  148  A    between atoms: _359  and  _361
REMARK  149  A    between atoms: _361  and  _362
REMARK  150  A    between atoms: _361  and  _364
REMARK  151  A    between atoms: _364  and  _365
REMARK  152  A    between atoms: _368  and  _370
REMARK  153  A    between atoms: _370  and  _371
REMARK  154  A    between atoms: _373  and  _375
REMARK  155  A    between atoms: _375  and  _376
REMARK  156  A    between atoms: _378  and  _380
REMARK  157  A    between atoms: _380  and  _381
REMARK  158  A    between atoms: _380  and  _383
REMARK  159  A    between atoms: _383  and  _384
REMARK  160  A    between atoms: _387  and  _389
REMARK  161  A    between atoms: _389  and  _390
REMARK  162  A    between atoms: _392  and  _394
REMARK  163  A    between atoms: _394  and  _395
REMARK  164  A    between atoms: _397  and  _399
REMARK  165  A    between atoms: _399  and  _400
REMARK  166  A    between atoms: _399  and  _402
REMARK  167  A    between atoms: _402  and  _403
REMARK  168  A    between atoms: _409  and  _411
REMARK  169  A    between atoms: _411  and  _412
REMARK  170  A    between atoms: _411  and  _414
REMARK  171  A    between atoms: _414  and  _415
REMARK  172  A    between atoms: _418  and  _420
REMARK  173  A    between atoms: _420  and  _421
REMARK  174  A    between atoms: _420  and  _423
REMARK  175  A    between atoms: _423  and  _424
REMARK  176  A    between atoms: _428  and  _429
REMARK  177  A    between atoms: _434  and  _436
REMARK  178  A    between atoms: _436  and  _437
REMARK  179  A    between atoms: _436  and  _439
REMARK  180  A    between atoms: _439  and  _440
REMARK  181  A    between atoms: _444  and  _445
REMARK  182  A    between atoms: _450  and  _452
REMARK  183  A    between atoms: _452  and  _453
REMARK  184  A    between atoms: _452  and  _455
REMARK  185  A    between atoms: _458  and  _460
REMARK  186  A    between atoms: _460  and  _461
REMARK  187  A    between atoms: _460  and  _463
REMARK  188  A    between atoms: _463  and  _464
REMARK  189  A    between atoms: _469  and  _471
REMARK  190  A    between atoms: _471  and  _472
REMARK  191  A    between atoms: _471  and  _474
REMARK  192  A    between atoms: _474  and  _475
REMARK  193  A    between atoms: _478  and  _480
REMARK  194  A    between atoms: _480  and  _481
REMARK  195  A    between atoms: _483  and  _485
REMARK  196  A    between atoms: _485  and  _486
REMARK  197  A    between atoms: _485  and  _488
REMARK  198  A    between atoms: _488  and  _489
REMARK  199  A    between atoms: _489  and  _490
REMARK  200  A    between atoms: _490  and  _491
REMARK                            x       y       z     vdW  Elec       q    Type
REMARK                         _______ _______ _______ _____ _____    ______ ____
ROOT
ATOM      1  O   HOH     1      -4.186  18.362  18.858  0.00  0.00    +0.000 OA
ENDROOT
TORSDOF 0
REMARK  Name = ../refined-set-2016/1hvh/1hvh_pocket.pdb
REMARK  200 active torsions:
REMARK  status: ('A' for Active; 'I' for Inactive)
REMARK    1  A    between atoms: _1  and  _3
REMARK    2  A    between atoms: _3  and  _4
REMARK    3  A    between atoms: _3  and  _6
REMARK    4  A    between atoms: _6  and  _7
REMARK    5  A    between atoms: _7  and  _8
REMARK    6  A    between atoms: _8  and  _9
REMARK    7  A    between atoms: _18  and  _20
REMARK    8  A    between atoms: _20  and  _21
REMARK    9  A    between atoms: _20  and  _23
REMARK   10  A    between atoms: _23  and  _24
REMARK   11  A    between atoms: _27  and  _29
REMARK   12  A    between atoms: _29  and  _30
REMARK   13  A    between atoms: _29  and  _32
REMARK   14  A    between atoms: _32  and  _33
REMARK   15  A    between atoms: _36  and  _38
REMARK   16  A    between atoms: _38  and  _39
REMARK   17  A    between atoms: _38  and  _41
REMARK   18  A    between atoms: _41  and  _42
REMARK   19  A    between atoms: _45  and  _47
REMARK   20  A    between atoms: _47  and  _48
REMARK   21  A    between atoms: _47  and  _50
REMARK   22  A    between atoms: _50  and  _51
REMARK   23  A    between atoms: _54  and  _56
REMARK   24  A    between atoms: _56  and  _57
REMARK   25  A    between atoms: _59  and  _61
REMARK   26  A    between atoms: _61  and  _62
REMARK   27  A    between atoms: _65  and  _67
REMARK   28  A    between atoms: _67  and  _68
REMARK   29  A    between atoms: _67  and  _70
REMARK   30  A    between atoms: _70  and  _71
REMARK   31  A    between atoms: _74  and  _76
REMARK   32  A    between atoms: _76  and  _77
REMARK   33  A    between atoms: _76  and  _79
REMARK   34  A    between atoms: _79  and  _80
REMARK   35  A    between atoms: _83  and  _85
REMARK   36  A    between atoms: _85  and  _86
REMARK   37  A    between atoms: _85  and  _88
REMARK   38  A    between atoms: _88  and  _89
REMARK   39  A    between atoms: _92  and  _94
REMARK   40  A    between atoms: _94  and  _95
REMARK   41  A    between atoms: _94  and  _97
REMARK   42  A    between atoms: _100  and  _102
REMARK   43  A    between atoms: _102  and  _103
REMARK   44  A    between atoms: _102  and  _105
REMARK   45  A    between atoms: _105  and  _106
REMARK   46  A    between atoms: _109  and  _111
REMARK   47  A    between atoms: _111  and  _112
REMARK   48  A    between atoms: _111  and  _114
REMARK   49  A    between atoms: _114  and  _115
REMARK   50  A    between atoms: _118  and  _120
REMARK   51  A    between atoms: _120  and  _121
REMARK   52  A    between atoms: _123  and  _125
REMARK   53  A    between atoms: _125  and  _126
REMARK   54  A    between atoms: _128  and  _130
REMARK   55  A    between atoms: _130  and  _131
REMARK   56  A    between atoms: _130  and  _133
REMARK   57  A    between atoms: _133  and  _134
REMARK   58  A    between atoms: _137  and  _139
REMARK   59  A    between atoms: _139  and  _140
REMARK   60  A    between atoms: _142  and  _144
REMARK   61  A    between atoms: _144  and  _145
REMARK   62  A    between atoms: _147  and  _149
REMARK   63  A    between atoms: _149  and  _150
REMARK   64  A    between atoms: _149  and  _152
REMARK   65  A    between atoms: _152  and  _153
REMARK   66  A    between atoms: _156  and  _158
REMARK   67  A    between atoms: _158  and  _159
REMARK   68  A    between atoms: _158  and  _161
REMARK   69  A    between atoms: _161  and  _162
REMARK   70  A    between atoms: _165  and  _167
REMARK   71  A    between atoms: _167  and  _168
REMARK   72  A    between atoms: _167  and  _170
REMARK   73  A    between atoms: _170  and  _171
REMARK   74  A    between atoms: _175  and  _176
REMARK   75  A    between atoms: _181  and  _183
REMARK   76  A    between atoms: _183  and  _184
REMARK   77  A    between atoms: _183  and  _186
REMARK   78  A    between atoms: _189  and  _191
REMARK   79  A    between atoms: _191  and  _192
REMARK   80  A    between atoms: _191  and  _194
REMARK   81  A    between atoms: _194  and  _195
REMARK   82  A    between atoms: _200  and  _202
REMARK   83  A    between atoms: _202  and  _203
REMARK   84  A    between atoms: _202  and  _205
REMARK   85  A    between atoms: _205  and  _206
REMARK   86  A    between atoms: _209  and  _211
REMARK   87  A    between atoms: _211  and  _212
REMARK   88  A    between atoms: _211  and  _214
REMARK   89  A    between atoms: _214  and  _215
REMARK   90  A    between atoms: _218  and  _220
REMARK   91  A    between atoms: _220  and  _221
REMARK   92  A    between atoms: _223  and  _225
REMARK   93  A    between atoms: _225  and  _226
REMARK   94  A    between atoms: _225  and  _228
REMARK   95  A    between atoms: _228  and  _229
REMARK   96  A    between atoms: _229  and  _230
REMARK   97  A    between atoms: _230  and  _231
REMARK   98  A    between atoms: _240  and  _242
REMARK   99  A    between atoms: _242  and  _243
REMARK  100  A    between atoms: _242  and  _245
REMARK  101  A    between atoms: _245  and  _246
REMARK  102  A    between atoms: _251  and  _253
REMARK  103  A    between atoms: _253  and  _254
REMARK  104  A    between atoms: _253  and  _256
REMARK  105  A    between atoms: _256  and  _257
REMARK  106  A    between atoms: _257  and  _258
REMARK  107  A    between atoms: _258  and  _259
REMARK  108  A    between atoms: _268  and  _270
REMARK  109  A    between atoms: _270  and  _271
REMARK  110  A    between atoms: _270  and  _273
REMARK  111  A    between atoms: _273  and  _274
REMARK  112  A    between atoms: _277  and  _279
REMARK  113  A    between atoms: _279  and  _280
REMARK  114  A    between atoms: _279  and  _282
REMARK  115  A    between atoms: _282  and  _283
REMARK  116  A    between atoms: _286  and  _288
REMARK  117  A    between atoms: _288  and  _289
REMARK  118  A    between atoms: _288  and  _291
REMARK  119  A    between atoms: _291  and  _292
REMARK  120  A    between atoms: _295  and  _297
REMARK  121  A    between atoms: _297  and  _298
REMARK  122  A    between atoms: _297  and  _300
REMARK  123  A    between atoms: _300  and  _301
REMARK  124  A    between atoms: _304  and  _306
REMARK  125  A    between atoms: _306  and  _307
REMARK  126  A    between atoms: _309  and  _311
REMARK  127  A    between atoms: _311  and  _312
REMARK  128  A    between atoms: _315  and  _317
REMARK  129  A    between atoms: _317  and  _318
REMARK  130  A    between atoms: _317  and  _320
REMARK  131  A    between atoms: _320  and  _321
REMARK  132  A    between atoms: _324  and  _326
REMARK  133  A    between atoms: _326  and  _327
REMARK  134  A    between atoms: _326  and  _329
REMARK  135  A    between atoms: _329  and  _330
REMARK  136  A    between atoms: _333  and  _335
REMARK  137  A    between atoms: _335  and  _336
REMARK  138  A    between atoms: _335  and  _338
REMARK  139  A    between atoms: _338  and  _339
REMARK  140  A    between atoms: _342  and  _344
REMARK  141  A    between atoms: _344  and  _345
REMARK  142  A    between atoms: _344  and  _347
REMARK  143  A    between atoms: _350  and  _352
REMARK  144  A    between atoms: _352  and  _353
REMARK  145  A    between atoms: _352  and  _355
REMARK  146  A    between atoms: _355  and  _356
REMARK  147  A    between atoms: _356  and  _357
REMARK  148  A    between atoms: _359  and  _361
REMARK  149  A    between atoms: _361  and  _362
REMARK  150  A    between atoms: _361  and  _364
REMARK  151  A    between atoms: _364  and  _365
REMARK  152  A    between atoms: _368  and  _370
REMARK  153  A    between atoms: _370  and  _371
REMARK  154  A    between atoms: _373  and  _375
REMARK  155  A    between atoms: _375  and  _376
REMARK  156  A    between atoms: _378  and  _380
REMARK  157  A    between atoms: _380  and  _381
REMARK  158  A    between atoms: _380  and  _383
REMARK  159  A    between atoms: _383  and  _384
REMARK  160  A    between atoms: _387  and  _389
REMARK  161  A    between atoms: _389  and  _390
REMARK  162  A    between atoms: _392  and  _394
REMARK  163  A    between atoms: _394  and  _395
REMARK  164  A    between atoms: _397  and  _399
REMARK  165  A    between atoms: _399  and  _400
REMARK  166  A    between atoms: _399  and  _402
REMARK  167  A    between atoms: _402  and  _403
REMARK  168  A    between atoms: _409  and  _411
REMARK  169  A    between atoms: _411  and  _412
REMARK  170  A    between atoms: _411  and  _414
REMARK  171  A    between atoms: _414  and  _415
REMARK  172  A    between atoms: _418  and  _420
REMARK  173  A    between atoms: _420  and  _421
REMARK  174  A    between atoms: _420  and  _423
REMARK  175  A    between atoms: _423  and  _424
REMARK  176  A    between atoms: _428  and  _429
REMARK  177  A    between atoms: _434  and  _436
REMARK  178  A    between atoms: _436  and  _437
REMARK  179  A    between atoms: _436  and  _439
REMARK  180  A    between atoms: _439  and  _440
REMARK  181  A    between atoms: _444  and  _445
REMARK  182  A    between atoms: _450  and  _452
REMARK  183  A    between atoms: _452  and  _453
REMARK  184  A    between atoms: _452  and  _455
REMARK  185  A    between atoms: _458  and  _460
REMARK  186  A    between atoms: _460  and  _461
REMARK  187  A    between atoms: _460  and  _463
REMARK  188  A    between atoms: _463  and  _464
REMARK  189  A    between atoms: _469  and  _471
REMARK  190  A    between atoms: _471  and  _472
REMARK  191  A    between atoms: _471  and  _474
REMARK  192  A    between atoms: _474  and  _475
REMARK  193  A    between atoms: _478  and  _480
REMARK  194  A    between atoms: _480  and  _481
REMARK  195  A    between atoms: _483  and  _485
REMARK  196  A    between atoms: _485  and  _486
REMARK  197  A    between atoms: _485  and  _488
REMARK  198  A    between atoms: _488  and  _489
REMARK  199  A    between atoms: _489  and  _490
REMARK  200  A    between atoms: _490  and  _491
REMARK                            x       y       z     vdW  Elec       q    Type
REMARK                         _______ _______ _______ _____ _____    ______ ____
ROOT
ATOM      1  O   HOH     1      -9.606  21.616  14.831  0.00  0.00    +0.000 OA
ENDROOT
TORSDOF 0
