REMARK  Name = ../refined-set-2016/2wej/2wej_pocket.pdb
REMARK  143 active torsions:
REMARK  status: ('A' for Active; 'I' for Inactive)
REMARK    1  A    between atoms: _1  and  _3
REMARK    2  A    between atoms: _3  and  _4
REMARK    3  A    between atoms: _3  and  _6
REMARK    4  A    between atoms: _6  and  _7
REMARK    5  A    between atoms: _17  and  _19
REMARK    6  A    between atoms: _19  and  _20
REMARK    7  A    between atoms: _19  and  _22
REMARK    8  A    between atoms: _22  and  _23
REMARK    9  A    between atoms: _28  and  _29
REMARK   10  A    between atoms: _31  and  _33
REMARK   11  A    between atoms: _33  and  _34
REMARK   12  A    between atoms: _33  and  _36
REMARK   13  A    between atoms: _36  and  _37
REMARK   14  A    between atoms: _40  and  _41
REMARK   15  A    between atoms: _46  and  _48
REMARK   16  A    between atoms: _48  and  _49
REMARK   17  A    between atoms: _48  and  _51
REMARK   18  A    between atoms: _51  and  _52
REMARK   19  A    between atoms: _57  and  _59
REMARK   20  A    between atoms: _59  and  _60
REMARK   21  A    between atoms: _63  and  _65
REMARK   22  A    between atoms: _65  and  _66
REMARK   23  A    between atoms: _65  and  _68
REMARK   24  A    between atoms: _68  and  _69
REMARK   25  A    between atoms: _74  and  _76
REMARK   26  A    between atoms: _76  and  _77
REMARK   27  A    between atoms: _76  and  _79
REMARK   28  A    between atoms: _79  and  _80
REMARK   29  A    between atoms: _83  and  _85
REMARK   30  A    between atoms: _85  and  _86
REMARK   31  A    between atoms: _85  and  _88
REMARK   32  A    between atoms: _88  and  _89
REMARK   33  A    between atoms: _89  and  _90
REMARK   34  A    between atoms: _95  and  _97
REMARK   35  A    between atoms: _97  and  _98
REMARK   36  A    between atoms: _97  and  _100
REMARK   37  A    between atoms: _100  and  _101
REMARK   38  A    between atoms: _107  and  _109
REMARK   39  A    between atoms: _120  and  _123
REMARK   40  A    between atoms: _123  and  _124
REMARK   41  A    between atoms: _132  and  _133
REMARK   42  A    between atoms: _141  and  _143
REMARK   43  A    between atoms: _143  and  _144
REMARK   44  A    between atoms: _143  and  _146
REMARK   45  A    between atoms: _146  and  _147
REMARK   46  A    between atoms: _147  and  _148
REMARK   47  A    between atoms: _151  and  _153
REMARK   48  A    between atoms: _153  and  _154
REMARK   49  A    between atoms: _153  and  _156
REMARK   50  A    between atoms: _156  and  _157
REMARK   51  A    between atoms: _162  and  _164
REMARK   52  A    between atoms: _164  and  _165
REMARK   53  A    between atoms: _164  and  _167
REMARK   54  A    between atoms: _167  and  _168
REMARK   55  A    between atoms: _168  and  _169
REMARK   56  A    between atoms: _172  and  _174
REMARK   57  A    between atoms: _174  and  _175
REMARK   58  A    between atoms: _174  and  _177
REMARK   59  A    between atoms: _177  and  _178
REMARK   60  A    between atoms: _181  and  _183
REMARK   61  A    between atoms: _183  and  _184
REMARK   62  A    between atoms: _183  and  _186
REMARK   63  A    between atoms: _186  and  _187
REMARK   64  A    between atoms: _188  and  ZN_403
REMARK   65  A    between atoms: _192  and  _194
REMARK   66  A    between atoms: _194  and  _195
REMARK   67  A    between atoms: _194  and  _197
REMARK   68  A    between atoms: _197  and  _198
REMARK   69  A    between atoms: _201  and  _203
REMARK   70  A    between atoms: _203  and  _204
REMARK   71  A    between atoms: _203  and  _206
REMARK   72  A    between atoms: _209  and  _211
REMARK   73  A    between atoms: _211  and  _212
REMARK   74  A    between atoms: _211  and  _214
REMARK   75  A    between atoms: _214  and  _215
REMARK   76  A    between atoms: _220  and  _222
REMARK   77  A    between atoms: _222  and  _223
REMARK   78  A    between atoms: _222  and  _225
REMARK   79  A    between atoms: _225  and  _226
REMARK   80  A    between atoms: _232  and  _234
REMARK   81  A    between atoms: _234  and  _235
REMARK   82  A    between atoms: _234  and  _237
REMARK   83  A    between atoms: _240  and  _242
REMARK   84  A    between atoms: _242  and  _243
REMARK   85  A    between atoms: _242  and  _245
REMARK   86  A    between atoms: _245  and  _246
REMARK   87  A    between atoms: _249  and  _251
REMARK   88  A    between atoms: _251  and  _252
REMARK   89  A    between atoms: _255  and  _257
REMARK   90  A    between atoms: _257  and  _258
REMARK   91  A    between atoms: _257  and  _260
REMARK   92  A    between atoms: _263  and  _265
REMARK   93  A    between atoms: _265  and  _266
REMARK   94  A    between atoms: _265  and  _268
REMARK   95  A    between atoms: _268  and  _269
REMARK   96  A    between atoms: _272  and  _274
REMARK   97  A    between atoms: _274  and  _275
REMARK   98  A    between atoms: _277  and  _279
REMARK   99  A    between atoms: _279  and  _280
REMARK  100  A    between atoms: _279  and  _282
REMARK  101  A    between atoms: _282  and  _283
REMARK  102  A    between atoms: _285  and  _287
REMARK  103  A    between atoms: _287  and  _288
REMARK  104  A    between atoms: _287  and  _290
REMARK  105  A    between atoms: _290  and  _291
REMARK  106  A    between atoms: _294  and  _296
REMARK  107  A    between atoms: _296  and  _297
REMARK  108  A    between atoms: _296  and  _299
REMARK  109  A    between atoms: _299  and  _300
REMARK  110  A    between atoms: _303  and  _305
REMARK  111  A    between atoms: _305  and  _306
REMARK  112  A    between atoms: _305  and  _308
REMARK  113  A    between atoms: _308  and  _309
REMARK  114  A    between atoms: _313  and  _314
REMARK  115  A    between atoms: _320  and  _321
REMARK  116  A    between atoms: _326  and  _328
REMARK  117  A    between atoms: _328  and  _329
REMARK  118  A    between atoms: _328  and  _331
REMARK  119  A    between atoms: _331  and  _332
REMARK  120  A    between atoms: _335  and  _337
REMARK  121  A    between atoms: _337  and  _338
REMARK  122  A    between atoms: _337  and  _340
REMARK  123  A    between atoms: _340  and  _341
REMARK  124  A    between atoms: _344  and  _346
REMARK  125  A    between atoms: _346  and  _347
REMARK  126  A    between atoms: _346  and  _349
REMARK  127  A    between atoms: _351  and  _353
REMARK  128  A    between atoms: _353  and  _354
REMARK  129  A    between atoms: _353  and  _356
REMARK  130  A    between atoms: _359  and  _361
REMARK  131  A    between atoms: _361  and  _362
REMARK  132  A    between atoms: _361  and  _364
REMARK  133  A    between atoms: _364  and  _365
REMARK  134  A    between atoms: _375  and  _377
REMARK  135  A    between atoms: _377  and  _378
REMARK  136  A    between atoms: _377  and  _380
REMARK  137  A    between atoms: _380  and  _381
REMARK  138  A    between atoms: _386  and  _388
REMARK  139  A    between atoms: _388  and  _389
REMARK  140  A    between atoms: _388  and  _391
REMARK  141  A    between atoms: _391  and  _392
REMARK  142  A    between atoms: _392  and  _393
REMARK  143  A    between atoms: _393  and  _394
REMARK                            x       y       z     vdW  Elec       q    Type
REMARK                         _______ _______ _______ _____ _____    ______ ____
ROOT
ATOM      1  CG  TRP A   1      27.284   1.859  12.238  0.00  0.00    -0.002 A 
ATOM      2  CD2 TRP A   1      25.933   1.376  12.223  0.00  0.00    +0.013 A 
ATOM      3  CE3 TRP A   1      25.347   0.130  12.498  0.00  0.00    +0.001 A 
ATOM      4  CZ3 TRP A   1      23.943   0.005  12.378  0.00  0.00    +0.000 A 
ATOM      5  CH2 TRP A   1      23.150   1.114  12.011  0.00  0.00    +0.001 A 
ATOM      6  CZ2 TRP A   1      23.705   2.337  11.729  0.00  0.00    +0.017 A 
ATOM      7  CE2 TRP A   1      25.100   2.464  11.842  0.00  0.00    +0.056 A 
ATOM      8  NE1 TRP A   1      25.911   3.559  11.655  0.00  0.00    -0.352 N 
ATOM      9  HE1 TRP A   1      25.591   4.509  11.378  0.00  0.00    +0.166 HD
ATOM     10  CD1 TRP A   1      27.223   3.188  11.896  0.00  0.00    +0.068 A 
ENDROOT
BRANCH   1  11
ATOM     11  CB  TRP A   1      28.523   1.051  12.601  0.00  0.00    +0.053 C 
BRANCH  11  12
ATOM     12  CA  TRP A   1      29.168   0.314  11.426  0.00  0.00    +0.137 C 
BRANCH  12  13
ATOM     13  N   TRP A   1      29.858   1.264  10.571  0.00  0.00    -0.239 NA
ATOM     14  H   TRP A   1      29.654   2.280  10.664  0.00  0.00    +0.142 HD
ENDBRANCH  12  13
BRANCH  12  15
ATOM     15  C   TRP A   1      28.137  -0.501  10.648  0.00  0.00    +0.224 C 
ATOM     16  O   TRP A   1      27.558  -0.023   9.649  0.00  0.00    -0.287 OA
ENDBRANCH  12  15
ENDBRANCH  11  12
ENDBRANCH   1  11
TORSDOF 4
REMARK  Name = ../refined-set-2016/2wej/2wej_pocket.pdb
REMARK  143 active torsions:
REMARK  status: ('A' for Active; 'I' for Inactive)
REMARK    1  A    between atoms: _1  and  _3
REMARK    2  A    between atoms: _3  and  _4
REMARK    3  A    between atoms: _3  and  _6
REMARK    4  A    between atoms: _6  and  _7
REMARK    5  A    between atoms: _17  and  _19
REMARK    6  A    between atoms: _19  and  _20
REMARK    7  A    between atoms: _19  and  _22
REMARK    8  A    between atoms: _22  and  _23
REMARK    9  A    between atoms: _28  and  _29
REMARK   10  A    between atoms: _31  and  _33
REMARK   11  A    between atoms: _33  and  _34
REMARK   12  A    between atoms: _33  and  _36
REMARK   13  A    between atoms: _36  and  _37
REMARK   14  A    between atoms: _40  and  _41
REMARK   15  A    between atoms: _46  and  _48
REMARK   16  A    between atoms: _48  and  _49
REMARK   17  A    between atoms: _48  and  _51
REMARK   18  A    between atoms: _51  and  _52
REMARK   19  A    between atoms: _57  and  _59
REMARK   20  A    between atoms: _59  and  _60
REMARK   21  A    between atoms: _63  and  _65
REMARK   22  A    between atoms: _65  and  _66
REMARK   23  A    between atoms: _65  and  _68
REMARK   24  A    between atoms: _68  and  _69
REMARK   25  A    between atoms: _74  and  _76
REMARK   26  A    between atoms: _76  and  _77
REMARK   27  A    between atoms: _76  and  _79
REMARK   28  A    between atoms: _79  and  _80
REMARK   29  A    between atoms: _83  and  _85
REMARK   30  A    between atoms: _85  and  _86
REMARK   31  A    between atoms: _85  and  _88
REMARK   32  A    between atoms: _88  and  _89
REMARK   33  A    between atoms: _89  and  _90
REMARK   34  A    between atoms: _95  and  _97
REMARK   35  A    between atoms: _97  and  _98
REMARK   36  A    between atoms: _97  and  _100
REMARK   37  A    between atoms: _100  and  _101
REMARK   38  A    between atoms: _107  and  _109
REMARK   39  A    between atoms: _120  and  _123
REMARK   40  A    between atoms: _123  and  _124
REMARK   41  A    between atoms: _132  and  _133
REMARK   42  A    between atoms: _141  and  _143
REMARK   43  A    between atoms: _143  and  _144
REMARK   44  A    between atoms: _143  and  _146
REMARK   45  A    between atoms: _146  and  _147
REMARK   46  A    between atoms: _147  and  _148
REMARK   47  A    between atoms: _151  and  _153
REMARK   48  A    between atoms: _153  and  _154
REMARK   49  A    between atoms: _153  and  _156
REMARK   50  A    between atoms: _156  and  _157
REMARK   51  A    between atoms: _162  and  _164
REMARK   52  A    between atoms: _164  and  _165
REMARK   53  A    between atoms: _164  and  _167
REMARK   54  A    between atoms: _167  and  _168
REMARK   55  A    between atoms: _168  and  _169
REMARK   56  A    between atoms: _172  and  _174
REMARK   57  A    between atoms: _174  and  _175
REMARK   58  A    between atoms: _174  and  _177
REMARK   59  A    between atoms: _177  and  _178
REMARK   60  A    between atoms: _181  and  _183
REMARK   61  A    between atoms: _183  and  _184
REMARK   62  A    between atoms: _183  and  _186
REMARK   63  A    between atoms: _186  and  _187
REMARK   64  A    between atoms: _188  and  ZN_403
REMARK   65  A    between atoms: _192  and  _194
REMARK   66  A    between atoms: _194  and  _195
REMARK   67  A    between atoms: _194  and  _197
REMARK   68  A    between atoms: _197  and  _198
REMARK   69  A    between atoms: _201  and  _203
REMARK   70  A    between atoms: _203  and  _204
REMARK   71  A    between atoms: _203  and  _206
REMARK   72  A    between atoms: _209  and  _211
REMARK   73  A    between atoms: _211  and  _212
REMARK   74  A    between atoms: _211  and  _214
REMARK   75  A    between atoms: _214  and  _215
REMARK   76  A    between atoms: _220  and  _222
REMARK   77  A    between atoms: _222  and  _223
REMARK   78  A    between atoms: _222  and  _225
REMARK   79  A    between atoms: _225  and  _226
REMARK   80  A    between atoms: _232  and  _234
REMARK   81  A    between atoms: _234  and  _235
REMARK   82  A    between atoms: _234  and  _237
REMARK   83  A    between atoms: _240  and  _242
REMARK   84  A    between atoms: _242  and  _243
REMARK   85  A    between atoms: _242  and  _245
REMARK   86  A    between atoms: _245  and  _246
REMARK   87  A    between atoms: _249  and  _251
REMARK   88  A    between atoms: _251  and  _252
REMARK   89  A    between atoms: _255  and  _257
REMARK   90  A    between atoms: _257  and  _258
REMARK   91  A    between atoms: _257  and  _260
REMARK   92  A    between atoms: _263  and  _265
REMARK   93  A    between atoms: _265  and  _266
REMARK   94  A    between atoms: _265  and  _268
REMARK   95  A    between atoms: _268  and  _269
REMARK   96  A    between atoms: _272  and  _274
REMARK   97  A    between atoms: _274  and  _275
REMARK   98  A    between atoms: _277  and  _279
REMARK   99  A    between atoms: _279  and  _280
REMARK  100  A    between atoms: _279  and  _282
REMARK  101  A    between atoms: _282  and  _283
REMARK  102  A    between atoms: _285  and  _287
REMARK  103  A    between atoms: _287  and  _288
REMARK  104  A    between atoms: _287  and  _290
REMARK  105  A    between atoms: _290  and  _291
REMARK  106  A    between atoms: _294  and  _296
REMARK  107  A    between atoms: _296  and  _297
REMARK  108  A    between atoms: _296  and  _299
REMARK  109  A    between atoms: _299  and  _300
REMARK  110  A    between atoms: _303  and  _305
REMARK  111  A    between atoms: _305  and  _306
REMARK  112  A    between atoms: _305  and  _308
REMARK  113  A    between atoms: _308  and  _309
REMARK  114  A    between atoms: _313  and  _314
REMARK  115  A    between atoms: _320  and  _321
REMARK  116  A    between atoms: _326  and  _328
REMARK  117  A    between atoms: _328  and  _329
REMARK  118  A    between atoms: _328  and  _331
REMARK  119  A    between atoms: _331  and  _332
REMARK  120  A    between atoms: _335  and  _337
REMARK  121  A    between atoms: _337  and  _338
REMARK  122  A    between atoms: _337  and  _340
REMARK  123  A    between atoms: _340  and  _341
REMARK  124  A    between atoms: _344  and  _346
REMARK  125  A    between atoms: _346  and  _347
REMARK  126  A    between atoms: _346  and  _349
REMARK  127  A    between atoms: _351  and  _353
REMARK  128  A    between atoms: _353  and  _354
REMARK  129  A    between atoms: _353  and  _356
REMARK  130  A    between atoms: _359  and  _361
REMARK  131  A    between atoms: _361  and  _362
REMARK  132  A    between atoms: _361  and  _364
REMARK  133  A    between atoms: _364  and  _365
REMARK  134  A    between atoms: _375  and  _377
REMARK  135  A    between atoms: _377  and  _378
REMARK  136  A    between atoms: _377  and  _380
REMARK  137  A    between atoms: _380  and  _381
REMARK  138  A    between atoms: _386  and  _388
REMARK  139  A    between atoms: _388  and  _389
REMARK  140  A    between atoms: _388  and  _391
REMARK  141  A    between atoms: _391  and  _392
REMARK  142  A    between atoms: _392  and  _393
REMARK  143  A    between atoms: _393  and  _394
REMARK                            x       y       z     vdW  Elec       q    Type
REMARK                         _______ _______ _______ _____ _____    ______ ____
ROOT
ATOM      1  CG  TYR A   1      23.416  -5.279  11.947  0.00  0.00    -0.020 A 
ATOM      2  CD2 TYR A   1      23.002  -5.300  13.287  0.00  0.00    -0.001 A 
ATOM      3  CE2 TYR A   1      22.139  -4.293  13.800  0.00  0.00    +0.036 A 
ATOM      4  CZ  TYR A   1      21.680  -3.309  12.944  0.00  0.00    +0.134 A 
ATOM      5  CE1 TYR A   1      22.072  -3.268  11.613  0.00  0.00    +0.036 A 
ATOM      6  CD1 TYR A   1      22.919  -4.263  11.118  0.00  0.00    -0.001 A 
ENDROOT
BRANCH   4   7
ATOM      7  OH  TYR A   1      20.838  -2.348  13.447  0.00  0.00    -0.506 OA
ATOM      8  HH  TYR A   1      20.665  -2.531  14.404  0.00  0.00    +0.292 HD
ENDBRANCH   4   7
BRANCH   1   9
ATOM      9  CB  TYR A   1      24.353  -6.372  11.399  0.00  0.00    +0.051 C 
BRANCH   9  10
ATOM     10  CA  TYR A   1      25.832  -6.061  11.638  0.00  0.00    +0.137 C 
BRANCH  10  11
ATOM     11  N   TYR A   1      26.219  -4.877  10.871  0.00  0.00    -0.239 NA
ATOM     12  H   TYR A   1      26.259  -4.932   9.833  0.00  0.00    +0.142 HD
ENDBRANCH  10  11
BRANCH  10  13
ATOM     13  C   TYR A   1      26.701  -7.284  11.328  0.00  0.00    +0.224 C 
ATOM     14  O   TYR A   1      26.328  -8.411  11.642  0.00  0.00    -0.287 OA
ENDBRANCH  10  13
ENDBRANCH   9  10
ENDBRANCH   1   9
TORSDOF 5
REMARK  Name = ../refined-set-2016/2wej/2wej_pocket.pdb
REMARK  143 active torsions:
REMARK  status: ('A' for Active; 'I' for Inactive)
REMARK    1  A    between atoms: _1  and  _3
REMARK    2  A    between atoms: _3  and  _4
REMARK    3  A    between atoms: _3  and  _6
REMARK    4  A    between atoms: _6  and  _7
REMARK    5  A    between atoms: _17  and  _19
REMARK    6  A    between atoms: _19  and  _20
REMARK    7  A    between atoms: _19  and  _22
REMARK    8  A    between atoms: _22  and  _23
REMARK    9  A    between atoms: _28  and  _29
REMARK   10  A    between atoms: _31  and  _33
REMARK   11  A    between atoms: _33  and  _34
REMARK   12  A    between atoms: _33  and  _36
REMARK   13  A    between atoms: _36  and  _37
REMARK   14  A    between atoms: _40  and  _41
REMARK   15  A    between atoms: _46  and  _48
REMARK   16  A    between atoms: _48  and  _49
REMARK   17  A    between atoms: _48  and  _51
REMARK   18  A    between atoms: _51  and  _52
REMARK   19  A    between atoms: _57  and  _59
REMARK   20  A    between atoms: _59  and  _60
REMARK   21  A    between atoms: _63  and  _65
REMARK   22  A    between atoms: _65  and  _66
REMARK   23  A    between atoms: _65  and  _68
REMARK   24  A    between atoms: _68  and  _69
REMARK   25  A    between atoms: _74  and  _76
REMARK   26  A    between atoms: _76  and  _77
REMARK   27  A    between atoms: _76  and  _79
REMARK   28  A    between atoms: _79  and  _80
REMARK   29  A    between atoms: _83  and  _85
REMARK   30  A    between atoms: _85  and  _86
REMARK   31  A    between atoms: _85  and  _88
REMARK   32  A    between atoms: _88  and  _89
REMARK   33  A    between atoms: _89  and  _90
REMARK   34  A    between atoms: _95  and  _97
REMARK   35  A    between atoms: _97  and  _98
REMARK   36  A    between atoms: _97  and  _100
REMARK   37  A    between atoms: _100  and  _101
REMARK   38  A    between atoms: _107  and  _109
REMARK   39  A    between atoms: _120  and  _123
REMARK   40  A    between atoms: _123  and  _124
REMARK   41  A    between atoms: _132  and  _133
REMARK   42  A    between atoms: _141  and  _143
REMARK   43  A    between atoms: _143  and  _144
REMARK   44  A    between atoms: _143  and  _146
REMARK   45  A    between atoms: _146  and  _147
REMARK   46  A    between atoms: _147  and  _148
REMARK   47  A    between atoms: _151  and  _153
REMARK   48  A    between atoms: _153  and  _154
REMARK   49  A    between atoms: _153  and  _156
REMARK   50  A    between atoms: _156  and  _157
REMARK   51  A    between atoms: _162  and  _164
REMARK   52  A    between atoms: _164  and  _165
REMARK   53  A    between atoms: _164  and  _167
REMARK   54  A    between atoms: _167  and  _168
REMARK   55  A    between atoms: _168  and  _169
REMARK   56  A    between atoms: _172  and  _174
REMARK   57  A    between atoms: _174  and  _175
REMARK   58  A    between atoms: _174  and  _177
REMARK   59  A    between atoms: _177  and  _178
REMARK   60  A    between atoms: _181  and  _183
REMARK   61  A    between atoms: _183  and  _184
REMARK   62  A    between atoms: _183  and  _186
REMARK   63  A    between atoms: _186  and  _187
REMARK   64  A    between atoms: _188  and  ZN_403
REMARK   65  A    between atoms: _192  and  _194
REMARK   66  A    between atoms: _194  and  _195
REMARK   67  A    between atoms: _194  and  _197
REMARK   68  A    between atoms: _197  and  _198
REMARK   69  A    between atoms: _201  and  _203
REMARK   70  A    between atoms: _203  and  _204
REMARK   71  A    between atoms: _203  and  _206
REMARK   72  A    between atoms: _209  and  _211
REMARK   73  A    between atoms: _211  and  _212
REMARK   74  A    between atoms: _211  and  _214
REMARK   75  A    between atoms: _214  and  _215
REMARK   76  A    between atoms: _220  and  _222
REMARK   77  A    between atoms: _222  and  _223
REMARK   78  A    between atoms: _222  and  _225
REMARK   79  A    between atoms: _225  and  _226
REMARK   80  A    between atoms: _232  and  _234
REMARK   81  A    between atoms: _234  and  _235
REMARK   82  A    between atoms: _234  and  _237
REMARK   83  A    between atoms: _240  and  _242
REMARK   84  A    between atoms: _242  and  _243
REMARK   85  A    between atoms: _242  and  _245
REMARK   86  A    between atoms: _245  and  _246
REMARK   87  A    between atoms: _249  and  _251
REMARK   88  A    between atoms: _251  and  _252
REMARK   89  A    between atoms: _255  and  _257
REMARK   90  A    between atoms: _257  and  _258
REMARK   91  A    between atoms: _257  and  _260
REMARK   92  A    between atoms: _263  and  _265
REMARK   93  A    between atoms: _265  and  _266
REMARK   94  A    between atoms: _265  and  _268
REMARK   95  A    between atoms: _268  and  _269
REMARK   96  A    between atoms: _272  and  _274
REMARK   97  A    between atoms: _274  and  _275
REMARK   98  A    between atoms: _277  and  _279
REMARK   99  A    between atoms: _279  and  _280
REMARK  100  A    between atoms: _279  and  _282
REMARK  101  A    between atoms: _282  and  _283
REMARK  102  A    between atoms: _285  and  _287
REMARK  103  A    between atoms: _287  and  _288
REMARK  104  A    between atoms: _287  and  _290
REMARK  105  A    between atoms: _290  and  _291
REMARK  106  A    between atoms: _294  and  _296
REMARK  107  A    between atoms: _296  and  _297
REMARK  108  A    between atoms: _296  and  _299
REMARK  109  A    between atoms: _299  and  _300
REMARK  110  A    between atoms: _303  and  _305
REMARK  111  A    between atoms: _305  and  _306
REMARK  112  A    between atoms: _305  and  _308
REMARK  113  A    between atoms: _308  and  _309
REMARK  114  A    between atoms: _313  and  _314
REMARK  115  A    between atoms: _320  and  _321
REMARK  116  A    between atoms: _326  and  _328
REMARK  117  A    between atoms: _328  and  _329
REMARK  118  A    between atoms: _328  and  _331
REMARK  119  A    between atoms: _331  and  _332
REMARK  120  A    between atoms: _335  and  _337
REMARK  121  A    between atoms: _337  and  _338
REMARK  122  A    between atoms: _337  and  _340
REMARK  123  A    between atoms: _340  and  _341
REMARK  124  A    between atoms: _344  and  _346
REMARK  125  A    between atoms: _346  and  _347
REMARK  126  A    between atoms: _346  and  _349
REMARK  127  A    between atoms: _351  and  _353
REMARK  128  A    between atoms: _353  and  _354
REMARK  129  A    between atoms: _353  and  _356
REMARK  130  A    between atoms: _359  and  _361
REMARK  131  A    between atoms: _361  and  _362
REMARK  132  A    between atoms: _361  and  _364
REMARK  133  A    between atoms: _364  and  _365
REMARK  134  A    between atoms: _375  and  _377
REMARK  135  A    between atoms: _377  and  _378
REMARK  136  A    between atoms: _377  and  _380
REMARK  137  A    between atoms: _380  and  _381
REMARK  138  A    between atoms: _386  and  _388
REMARK  139  A    between atoms: _388  and  _389
REMARK  140  A    between atoms: _388  and  _391
REMARK  141  A    between atoms: _391  and  _392
REMARK  142  A    between atoms: _392  and  _393
REMARK  143  A    between atoms: _393  and  _394
REMARK                            x       y       z     vdW  Elec       q    Type
REMARK                         _______ _______ _______ _____ _____    ______ ____
ROOT
ATOM      1  C   SER A   1      19.013  -1.350  23.413  0.00  0.00    +0.244 C 
ATOM      2  N   PRO A   2      18.377  -2.515  23.162  0.00  0.00    -0.273 N 
ATOM      3  CA  PRO A   2      17.189  -3.036  23.846  0.00  0.00    +0.140 C 
ATOM      4  CB  PRO A   2      16.688  -4.075  22.852  0.00  0.00    +0.030 C 
ATOM      5  CG  PRO A   2      17.962  -4.677  22.328  0.00  0.00    +0.024 C 
ATOM      6  CD  PRO A   2      18.859  -3.456  22.136  0.00  0.00    +0.094 C 
ATOM      7  O   SER A   1      19.966  -0.977  22.744  0.00  0.00    -0.273 OA
ENDROOT
BRANCH   3   8
ATOM      8  C   PRO A   2      17.563  -3.736  25.152  0.00  0.00    +0.227 C 
ATOM      9  O   PRO A   2      18.773  -3.776  25.491  0.00  0.00    -0.286 OA
ENDBRANCH   3   8
BRANCH   1  10
ATOM     10  CA  SER A   1      18.506  -0.472  24.572  0.00  0.00    +0.175 C 
BRANCH  10  11
ATOM     11  N   SER A   1      19.566   0.416  25.058  0.00  0.00    -0.236 NA
ATOM     12  H   SER A   1      20.036   1.043  24.375  0.00  0.00    +0.142 HD
ENDBRANCH  10  11
BRANCH  10  13
ATOM     13  CB  SER A   1      17.311   0.342  24.056  0.00  0.00    +0.163 C 
BRANCH  13  14
ATOM     14  OG  SER A   1      16.698   1.088  25.091  0.00  0.00    -0.380 OA
ATOM     15  H   SER A   1      16.374   0.471  25.794  0.00  0.00    +0.211 HD
ENDBRANCH  13  14
ENDBRANCH  10  13
ENDBRANCH   1  10
TORSDOF 5
REMARK  Name = ../refined-set-2016/2wej/2wej_pocket.pdb
REMARK  143 active torsions:
REMARK  status: ('A' for Active; 'I' for Inactive)
REMARK    1  A    between atoms: _1  and  _3
REMARK    2  A    between atoms: _3  and  _4
REMARK    3  A    between atoms: _3  and  _6
REMARK    4  A    between atoms: _6  and  _7
REMARK    5  A    between atoms: _17  and  _19
REMARK    6  A    between atoms: _19  and  _20
REMARK    7  A    between atoms: _19  and  _22
REMARK    8  A    between atoms: _22  and  _23
REMARK    9  A    between atoms: _28  and  _29
REMARK   10  A    between atoms: _31  and  _33
REMARK   11  A    between atoms: _33  and  _34
REMARK   12  A    between atoms: _33  and  _36
REMARK   13  A    between atoms: _36  and  _37
REMARK   14  A    between atoms: _40  and  _41
REMARK   15  A    between atoms: _46  and  _48
REMARK   16  A    between atoms: _48  and  _49
REMARK   17  A    between atoms: _48  and  _51
REMARK   18  A    between atoms: _51  and  _52
REMARK   19  A    between atoms: _57  and  _59
REMARK   20  A    between atoms: _59  and  _60
REMARK   21  A    between atoms: _63  and  _65
REMARK   22  A    between atoms: _65  and  _66
REMARK   23  A    between atoms: _65  and  _68
REMARK   24  A    between atoms: _68  and  _69
REMARK   25  A    between atoms: _74  and  _76
REMARK   26  A    between atoms: _76  and  _77
REMARK   27  A    between atoms: _76  and  _79
REMARK   28  A    between atoms: _79  and  _80
REMARK   29  A    between atoms: _83  and  _85
REMARK   30  A    between atoms: _85  and  _86
REMARK   31  A    between atoms: _85  and  _88
REMARK   32  A    between atoms: _88  and  _89
REMARK   33  A    between atoms: _89  and  _90
REMARK   34  A    between atoms: _95  and  _97
REMARK   35  A    between atoms: _97  and  _98
REMARK   36  A    between atoms: _97  and  _100
REMARK   37  A    between atoms: _100  and  _101
REMARK   38  A    between atoms: _107  and  _109
REMARK   39  A    between atoms: _120  and  _123
REMARK   40  A    between atoms: _123  and  _124
REMARK   41  A    between atoms: _132  and  _133
REMARK   42  A    between atoms: _141  and  _143
REMARK   43  A    between atoms: _143  and  _144
REMARK   44  A    between atoms: _143  and  _146
REMARK   45  A    between atoms: _146  and  _147
REMARK   46  A    between atoms: _147  and  _148
REMARK   47  A    between atoms: _151  and  _153
REMARK   48  A    between atoms: _153  and  _154
REMARK   49  A    between atoms: _153  and  _156
REMARK   50  A    between atoms: _156  and  _157
REMARK   51  A    between atoms: _162  and  _164
REMARK   52  A    between atoms: _164  and  _165
REMARK   53  A    between atoms: _164  and  _167
REMARK   54  A    between atoms: _167  and  _168
REMARK   55  A    between atoms: _168  and  _169
REMARK   56  A    between atoms: _172  and  _174
REMARK   57  A    between atoms: _174  and  _175
REMARK   58  A    between atoms: _174  and  _177
REMARK   59  A    between atoms: _177  and  _178
REMARK   60  A    between atoms: _181  and  _183
REMARK   61  A    between atoms: _183  and  _184
REMARK   62  A    between atoms: _183  and  _186
REMARK   63  A    between atoms: _186  and  _187
REMARK   64  A    between atoms: _188  and  ZN_403
REMARK   65  A    between atoms: _192  and  _194
REMARK   66  A    between atoms: _194  and  _195
REMARK   67  A    between atoms: _194  and  _197
REMARK   68  A    between atoms: _197  and  _198
REMARK   69  A    between atoms: _201  and  _203
REMARK   70  A    between atoms: _203  and  _204
REMARK   71  A    between atoms: _203  and  _206
REMARK   72  A    between atoms: _209  and  _211
REMARK   73  A    between atoms: _211  and  _212
REMARK   74  A    between atoms: _211  and  _214
REMARK   75  A    between atoms: _214  and  _215
REMARK   76  A    between atoms: _220  and  _222
REMARK   77  A    between atoms: _222  and  _223
REMARK   78  A    between atoms: _222  and  _225
REMARK   79  A    between atoms: _225  and  _226
REMARK   80  A    between atoms: _232  and  _234
REMARK   81  A    between atoms: _234  and  _235
REMARK   82  A    between atoms: _234  and  _237
REMARK   83  A    between atoms: _240  and  _242
REMARK   84  A    between atoms: _242  and  _243
REMARK   85  A    between atoms: _242  and  _245
REMARK   86  A    between atoms: _245  and  _246
REMARK   87  A    between atoms: _249  and  _251
REMARK   88  A    between atoms: _251  and  _252
REMARK   89  A    between atoms: _255  and  _257
REMARK   90  A    between atoms: _257  and  _258
REMARK   91  A    between atoms: _257  and  _260
REMARK   92  A    between atoms: _263  and  _265
REMARK   93  A    between atoms: _265  and  _266
REMARK   94  A    between atoms: _265  and  _268
REMARK   95  A    between atoms: _268  and  _269
REMARK   96  A    between atoms: _272  and  _274
REMARK   97  A    between atoms: _274  and  _275
REMARK   98  A    between atoms: _277  and  _279
REMARK   99  A    between atoms: _279  and  _280
REMARK  100  A    between atoms: _279  and  _282
REMARK  101  A    between atoms: _282  and  _283
REMARK  102  A    between atoms: _285  and  _287
REMARK  103  A    between atoms: _287  and  _288
REMARK  104  A    between atoms: _287  and  _290
REMARK  105  A    between atoms: _290  and  _291
REMARK  106  A    between atoms: _294  and  _296
REMARK  107  A    between atoms: _296  and  _297
REMARK  108  A    between atoms: _296  and  _299
REMARK  109  A    between atoms: _299  and  _300
REMARK  110  A    between atoms: _303  and  _305
REMARK  111  A    between atoms: _305  and  _306
REMARK  112  A    between atoms: _305  and  _308
REMARK  113  A    between atoms: _308  and  _309
REMARK  114  A    between atoms: _313  and  _314
REMARK  115  A    between atoms: _320  and  _321
REMARK  116  A    between atoms: _326  and  _328
REMARK  117  A    between atoms: _328  and  _329
REMARK  118  A    between atoms: _328  and  _331
REMARK  119  A    between atoms: _331  and  _332
REMARK  120  A    between atoms: _335  and  _337
REMARK  121  A    between atoms: _337  and  _338
REMARK  122  A    between atoms: _337  and  _340
REMARK  123  A    between atoms: _340  and  _341
REMARK  124  A    between atoms: _344  and  _346
REMARK  125  A    between atoms: _346  and  _347
REMARK  126  A    between atoms: _346  and  _349
REMARK  127  A    between atoms: _351  and  _353
REMARK  128  A    between atoms: _353  and  _354
REMARK  129  A    between atoms: _353  and  _356
REMARK  130  A    between atoms: _359  and  _361
REMARK  131  A    between atoms: _361  and  _362
REMARK  132  A    between atoms: _361  and  _364
REMARK  133  A    between atoms: _364  and  _365
REMARK  134  A    between atoms: _375  and  _377
REMARK  135  A    between atoms: _377  and  _378
REMARK  136  A    between atoms: _377  and  _380
REMARK  137  A    between atoms: _380  and  _381
REMARK  138  A    between atoms: _386  and  _388
REMARK  139  A    between atoms: _388  and  _389
REMARK  140  A    between atoms: _388  and  _391
REMARK  141  A    between atoms: _391  and  _392
REMARK  142  A    between atoms: _392  and  _393
REMARK  143  A    between atoms: _393  and  _394
REMARK                            x       y       z     vdW  Elec       q    Type
REMARK                         _______ _______ _______ _____ _____    ______ ____
ROOT
ATOM      1  CB  ASN A   1      18.673   3.896   5.439  0.00  0.00    +0.110 C 
ENDROOT
BRANCH   1   2
ATOM      2  CG  ASN A   1      18.337   3.029   6.631  0.00  0.00    +0.221 C 
ATOM      3  ND2 ASN A   1      17.677   3.613   7.624  0.00  0.00    -0.329 N 
ATOM      4 HD21 ASN A   1      17.462   3.079   8.490  0.00  0.00    +0.145 HD
ATOM      5 HD22 ASN A   1      17.375   4.604   7.536  0.00  0.00    +0.145 HD
ATOM      6  OD1 ASN A   1      18.723   1.841   6.685  0.00  0.00    -0.275 OA
ENDBRANCH   1   2
BRANCH   1   7
ATOM      7  CA  ASN A   1      19.067   3.067   4.203  0.00  0.00    +0.142 C 
BRANCH   7   8
ATOM      8  N   ASN A   1      17.949   2.213   3.744  0.00  0.00    -0.239 NA
ATOM      9  H   ASN A   1      17.402   1.662   4.436  0.00  0.00    +0.142 HD
ENDBRANCH   7   8
BRANCH   7  10
ATOM     10  C   ASN A   1      20.332   2.277   4.488  0.00  0.00    +0.225 C 
ATOM     11  O   ASN A   1      21.289   2.823   5.056  0.00  0.00    -0.287 OA
ENDBRANCH   7  10
ENDBRANCH   1   7
TORSDOF 4
REMARK  Name = ../refined-set-2016/2wej/2wej_pocket.pdb
REMARK  143 active torsions:
REMARK  status: ('A' for Active; 'I' for Inactive)
REMARK    1  A    between atoms: _1  and  _3
REMARK    2  A    between atoms: _3  and  _4
REMARK    3  A    between atoms: _3  and  _6
REMARK    4  A    between atoms: _6  and  _7
REMARK    5  A    between atoms: _17  and  _19
REMARK    6  A    between atoms: _19  and  _20
REMARK    7  A    between atoms: _19  and  _22
REMARK    8  A    between atoms: _22  and  _23
REMARK    9  A    between atoms: _28  and  _29
REMARK   10  A    between atoms: _31  and  _33
REMARK   11  A    between atoms: _33  and  _34
REMARK   12  A    between atoms: _33  and  _36
REMARK   13  A    between atoms: _36  and  _37
REMARK   14  A    between atoms: _40  and  _41
REMARK   15  A    between atoms: _46  and  _48
REMARK   16  A    between atoms: _48  and  _49
REMARK   17  A    between atoms: _48  and  _51
REMARK   18  A    between atoms: _51  and  _52
REMARK   19  A    between atoms: _57  and  _59
REMARK   20  A    between atoms: _59  and  _60
REMARK   21  A    between atoms: _63  and  _65
REMARK   22  A    between atoms: _65  and  _66
REMARK   23  A    between atoms: _65  and  _68
REMARK   24  A    between atoms: _68  and  _69
REMARK   25  A    between atoms: _74  and  _76
REMARK   26  A    between atoms: _76  and  _77
REMARK   27  A    between atoms: _76  and  _79
REMARK   28  A    between atoms: _79  and  _80
REMARK   29  A    between atoms: _83  and  _85
REMARK   30  A    between atoms: _85  and  _86
REMARK   31  A    between atoms: _85  and  _88
REMARK   32  A    between atoms: _88  and  _89
REMARK   33  A    between atoms: _89  and  _90
REMARK   34  A    between atoms: _95  and  _97
REMARK   35  A    between atoms: _97  and  _98
REMARK   36  A    between atoms: _97  and  _100
REMARK   37  A    between atoms: _100  and  _101
REMARK   38  A    between atoms: _107  and  _109
REMARK   39  A    between atoms: _120  and  _123
REMARK   40  A    between atoms: _123  and  _124
REMARK   41  A    between atoms: _132  and  _133
REMARK   42  A    between atoms: _141  and  _143
REMARK   43  A    between atoms: _143  and  _144
REMARK   44  A    between atoms: _143  and  _146
REMARK   45  A    between atoms: _146  and  _147
REMARK   46  A    between atoms: _147  and  _148
REMARK   47  A    between atoms: _151  and  _153
REMARK   48  A    between atoms: _153  and  _154
REMARK   49  A    between atoms: _153  and  _156
REMARK   50  A    between atoms: _156  and  _157
REMARK   51  A    between atoms: _162  and  _164
REMARK   52  A    between atoms: _164  and  _165
REMARK   53  A    between atoms: _164  and  _167
REMARK   54  A    between atoms: _167  and  _168
REMARK   55  A    between atoms: _168  and  _169
REMARK   56  A    between atoms: _172  and  _174
REMARK   57  A    between atoms: _174  and  _175
REMARK   58  A    between atoms: _174  and  _177
REMARK   59  A    between atoms: _177  and  _178
REMARK   60  A    between atoms: _181  and  _183
REMARK   61  A    between atoms: _183  and  _184
REMARK   62  A    between atoms: _183  and  _186
REMARK   63  A    between atoms: _186  and  _187
REMARK   64  A    between atoms: _188  and  ZN_403
REMARK   65  A    between atoms: _192  and  _194
REMARK   66  A    between atoms: _194  and  _195
REMARK   67  A    between atoms: _194  and  _197
REMARK   68  A    between atoms: _197  and  _198
REMARK   69  A    between atoms: _201  and  _203
REMARK   70  A    between atoms: _203  and  _204
REMARK   71  A    between atoms: _203  and  _206
REMARK   72  A    between atoms: _209  and  _211
REMARK   73  A    between atoms: _211  and  _212
REMARK   74  A    between atoms: _211  and  _214
REMARK   75  A    between atoms: _214  and  _215
REMARK   76  A    between atoms: _220  and  _222
REMARK   77  A    between atoms: _222  and  _223
REMARK   78  A    between atoms: _222  and  _225
REMARK   79  A    between atoms: _225  and  _226
REMARK   80  A    between atoms: _232  and  _234
REMARK   81  A    between atoms: _234  and  _235
REMARK   82  A    between atoms: _234  and  _237
REMARK   83  A    between atoms: _240  and  _242
REMARK   84  A    between atoms: _242  and  _243
REMARK   85  A    between atoms: _242  and  _245
REMARK   86  A    between atoms: _245  and  _246
REMARK   87  A    between atoms: _249  and  _251
REMARK   88  A    between atoms: _251  and  _252
REMARK   89  A    between atoms: _255  and  _257
REMARK   90  A    between atoms: _257  and  _258
REMARK   91  A    between atoms: _257  and  _260
REMARK   92  A    between atoms: _263  and  _265
REMARK   93  A    between atoms: _265  and  _266
REMARK   94  A    between atoms: _265  and  _268
REMARK   95  A    between atoms: _268  and  _269
REMARK   96  A    between atoms: _272  and  _274
REMARK   97  A    between atoms: _274  and  _275
REMARK   98  A    between atoms: _277  and  _279
REMARK   99  A    between atoms: _279  and  _280
REMARK  100  A    between atoms: _279  and  _282
REMARK  101  A    between atoms: _282  and  _283
REMARK  102  A    between atoms: _285  and  _287
REMARK  103  A    between atoms: _287  and  _288
REMARK  104  A    between atoms: _287  and  _290
REMARK  105  A    between atoms: _290  and  _291
REMARK  106  A    between atoms: _294  and  _296
REMARK  107  A    between atoms: _296  and  _297
REMARK  108  A    between atoms: _296  and  _299
REMARK  109  A    between atoms: _299  and  _300
REMARK  110  A    between atoms: _303  and  _305
REMARK  111  A    between atoms: _305  and  _306
REMARK  112  A    between atoms: _305  and  _308
REMARK  113  A    between atoms: _308  and  _309
REMARK  114  A    between atoms: _313  and  _314
REMARK  115  A    between atoms: _320  and  _321
REMARK  116  A    between atoms: _326  and  _328
REMARK  117  A    between atoms: _328  and  _329
REMARK  118  A    between atoms: _328  and  _331
REMARK  119  A    between atoms: _331  and  _332
REMARK  120  A    between atoms: _335  and  _337
REMARK  121  A    between atoms: _337  and  _338
REMARK  122  A    between atoms: _337  and  _340
REMARK  123  A    between atoms: _340  and  _341
REMARK  124  A    between atoms: _344  and  _346
REMARK  125  A    between atoms: _346  and  _347
REMARK  126  A    between atoms: _346  and  _349
REMARK  127  A    between atoms: _351  and  _353
REMARK  128  A    between atoms: _353  and  _354
REMARK  129  A    between atoms: _353  and  _356
REMARK  130  A    between atoms: _359  and  _361
REMARK  131  A    between atoms: _361  and  _362
REMARK  132  A    between atoms: _361  and  _364
REMARK  133  A    between atoms: _364  and  _365
REMARK  134  A    between atoms: _375  and  _377
REMARK  135  A    between atoms: _377  and  _378
REMARK  136  A    between atoms: _377  and  _380
REMARK  137  A    between atoms: _380  and  _381
REMARK  138  A    between atoms: _386  and  _388
REMARK  139  A    between atoms: _388  and  _389
REMARK  140  A    between atoms: _388  and  _391
REMARK  141  A    between atoms: _391  and  _392
REMARK  142  A    between atoms: _392  and  _393
REMARK  143  A    between atoms: _393  and  _394
REMARK                            x       y       z     vdW  Elec       q    Type
REMARK                         _______ _______ _______ _____ _____    ______ ____
ROOT
ATOM      1  CA  ALA A   1      16.724  -1.453   7.440  0.00  0.00    +0.133 C 
ATOM      2  CB  ALA A   1      16.069  -1.173   8.800  0.00  0.00    +0.027 C 
ENDROOT
BRANCH   1   3
ATOM      3  N   ALA A   1      18.122  -0.988   7.406  0.00  0.00    -0.239 NA
ATOM      4  H   ALA A   1      18.329  -0.124   6.865  0.00  0.00    +0.142 HD
ENDBRANCH   1   3
BRANCH   1   5
ATOM      5  C   ALA A   1      15.986  -0.692   6.317  0.00  0.00    +0.224 C 
ATOM      6  O   ALA A   1      16.638  -0.006   5.526  0.00  0.00    -0.287 OA
ENDBRANCH   1   5
TORSDOF 2
REMARK  Name = ../refined-set-2016/2wej/2wej_pocket.pdb
REMARK  143 active torsions:
REMARK  status: ('A' for Active; 'I' for Inactive)
REMARK    1  A    between atoms: _1  and  _3
REMARK    2  A    between atoms: _3  and  _4
REMARK    3  A    between atoms: _3  and  _6
REMARK    4  A    between atoms: _6  and  _7
REMARK    5  A    between atoms: _17  and  _19
REMARK    6  A    between atoms: _19  and  _20
REMARK    7  A    between atoms: _19  and  _22
REMARK    8  A    between atoms: _22  and  _23
REMARK    9  A    between atoms: _28  and  _29
REMARK   10  A    between atoms: _31  and  _33
REMARK   11  A    between atoms: _33  and  _34
REMARK   12  A    between atoms: _33  and  _36
REMARK   13  A    between atoms: _36  and  _37
REMARK   14  A    between atoms: _40  and  _41
REMARK   15  A    between atoms: _46  and  _48
REMARK   16  A    between atoms: _48  and  _49
REMARK   17  A    between atoms: _48  and  _51
REMARK   18  A    between atoms: _51  and  _52
REMARK   19  A    between atoms: _57  and  _59
REMARK   20  A    between atoms: _59  and  _60
REMARK   21  A    between atoms: _63  and  _65
REMARK   22  A    between atoms: _65  and  _66
REMARK   23  A    between atoms: _65  and  _68
REMARK   24  A    between atoms: _68  and  _69
REMARK   25  A    between atoms: _74  and  _76
REMARK   26  A    between atoms: _76  and  _77
REMARK   27  A    between atoms: _76  and  _79
REMARK   28  A    between atoms: _79  and  _80
REMARK   29  A    between atoms: _83  and  _85
REMARK   30  A    between atoms: _85  and  _86
REMARK   31  A    between atoms: _85  and  _88
REMARK   32  A    between atoms: _88  and  _89
REMARK   33  A    between atoms: _89  and  _90
REMARK   34  A    between atoms: _95  and  _97
REMARK   35  A    between atoms: _97  and  _98
REMARK   36  A    between atoms: _97  and  _100
REMARK   37  A    between atoms: _100  and  _101
REMARK   38  A    between atoms: _107  and  _109
REMARK   39  A    between atoms: _120  and  _123
REMARK   40  A    between atoms: _123  and  _124
REMARK   41  A    between atoms: _132  and  _133
REMARK   42  A    between atoms: _141  and  _143
REMARK   43  A    between atoms: _143  and  _144
REMARK   44  A    between atoms: _143  and  _146
REMARK   45  A    between atoms: _146  and  _147
REMARK   46  A    between atoms: _147  and  _148
REMARK   47  A    between atoms: _151  and  _153
REMARK   48  A    between atoms: _153  and  _154
REMARK   49  A    between atoms: _153  and  _156
REMARK   50  A    between atoms: _156  and  _157
REMARK   51  A    between atoms: _162  and  _164
REMARK   52  A    between atoms: _164  and  _165
REMARK   53  A    between atoms: _164  and  _167
REMARK   54  A    between atoms: _167  and  _168
REMARK   55  A    between atoms: _168  and  _169
REMARK   56  A    between atoms: _172  and  _174
REMARK   57  A    between atoms: _174  and  _175
REMARK   58  A    between atoms: _174  and  _177
REMARK   59  A    between atoms: _177  and  _178
REMARK   60  A    between atoms: _181  and  _183
REMARK   61  A    between atoms: _183  and  _184
REMARK   62  A    between atoms: _183  and  _186
REMARK   63  A    between atoms: _186  and  _187
REMARK   64  A    between atoms: _188  and  ZN_403
REMARK   65  A    between atoms: _192  and  _194
REMARK   66  A    between atoms: _194  and  _195
REMARK   67  A    between atoms: _194  and  _197
REMARK   68  A    between atoms: _197  and  _198
REMARK   69  A    between atoms: _201  and  _203
REMARK   70  A    between atoms: _203  and  _204
REMARK   71  A    between atoms: _203  and  _206
REMARK   72  A    between atoms: _209  and  _211
REMARK   73  A    between atoms: _211  and  _212
REMARK   74  A    between atoms: _211  and  _214
REMARK   75  A    between atoms: _214  and  _215
REMARK   76  A    between atoms: _220  and  _222
REMARK   77  A    between atoms: _222  and  _223
REMARK   78  A    between atoms: _222  and  _225
REMARK   79  A    between atoms: _225  and  _226
REMARK   80  A    between atoms: _232  and  _234
REMARK   81  A    between atoms: _234  and  _235
REMARK   82  A    between atoms: _234  and  _237
REMARK   83  A    between atoms: _240  and  _242
REMARK   84  A    between atoms: _242  and  _243
REMARK   85  A    between atoms: _242  and  _245
REMARK   86  A    between atoms: _245  and  _246
REMARK   87  A    between atoms: _249  and  _251
REMARK   88  A    between atoms: _251  and  _252
REMARK   89  A    between atoms: _255  and  _257
REMARK   90  A    between atoms: _257  and  _258
REMARK   91  A    between atoms: _257  and  _260
REMARK   92  A    between atoms: _263  and  _265
REMARK   93  A    between atoms: _265  and  _266
REMARK   94  A    between atoms: _265  and  _268
REMARK   95  A    between atoms: _268  and  _269
REMARK   96  A    between atoms: _272  and  _274
REMARK   97  A    between atoms: _274  and  _275
REMARK   98  A    between atoms: _277  and  _279
REMARK   99  A    between atoms: _279  and  _280
REMARK  100  A    between atoms: _279  and  _282
REMARK  101  A    between atoms: _282  and  _283
REMARK  102  A    between atoms: _285  and  _287
REMARK  103  A    between atoms: _287  and  _288
REMARK  104  A    between atoms: _287  and  _290
REMARK  105  A    between atoms: _290  and  _291
REMARK  106  A    between atoms: _294  and  _296
REMARK  107  A    between atoms: _296  and  _297
REMARK  108  A    between atoms: _296  and  _299
REMARK  109  A    between atoms: _299  and  _300
REMARK  110  A    between atoms: _303  and  _305
REMARK  111  A    between atoms: _305  and  _306
REMARK  112  A    between atoms: _305  and  _308
REMARK  113  A    between atoms: _308  and  _309
REMARK  114  A    between atoms: _313  and  _314
REMARK  115  A    between atoms: _320  and  _321
REMARK  116  A    between atoms: _326  and  _328
REMARK  117  A    between atoms: _328  and  _329
REMARK  118  A    between atoms: _328  and  _331
REMARK  119  A    between atoms: _331  and  _332
REMARK  120  A    between atoms: _335  and  _337
REMARK  121  A    between atoms: _337  and  _338
REMARK  122  A    between atoms: _337  and  _340
REMARK  123  A    between atoms: _340  and  _341
REMARK  124  A    between atoms: _344  and  _346
REMARK  125  A    between atoms: _346  and  _347
REMARK  126  A    between atoms: _346  and  _349
REMARK  127  A    between atoms: _351  and  _353
REMARK  128  A    between atoms: _353  and  _354
REMARK  129  A    between atoms: _353  and  _356
REMARK  130  A    between atoms: _359  and  _361
REMARK  131  A    between atoms: _361  and  _362
REMARK  132  A    between atoms: _361  and  _364
REMARK  133  A    between atoms: _364  and  _365
REMARK  134  A    between atoms: _375  and  _377
REMARK  135  A    between atoms: _377  and  _378
REMARK  136  A    between atoms: _377  and  _380
REMARK  137  A    between atoms: _380  and  _381
REMARK  138  A    between atoms: _386  and  _388
REMARK  139  A    between atoms: _388  and  _389
REMARK  140  A    between atoms: _388  and  _391
REMARK  141  A    between atoms: _391  and  _392
REMARK  142  A    between atoms: _392  and  _393
REMARK  143  A    between atoms: _393  and  _394
REMARK                            x       y       z     vdW  Elec       q    Type
REMARK                         _______ _______ _______ _____ _____    ______ ____
ROOT
ATOM      1  CB  ASN A   1      12.724   4.473   7.084  0.00  0.00    +0.110 C 
ENDROOT
BRANCH   1   2
ATOM      2  CG  ASN A   1      13.833   4.255   8.101  0.00  0.00    +0.221 C 
ATOM      3  ND2 ASN A   1      13.914   3.066   8.654  0.00  0.00    -0.329 N 
ATOM      4 HD21 ASN A   1      14.634   2.878   9.380  0.00  0.00    +0.145 HD
ATOM      5 HD22 ASN A   1      13.258   2.312   8.365  0.00  0.00    +0.145 HD
ATOM      6  OD1 ASN A   1      14.600   5.192   8.416  0.00  0.00    -0.275 OA
ENDBRANCH   1   2
BRANCH   1   7
ATOM      7  CA  ASN A   1      11.984   3.186   6.691  0.00  0.00    +0.142 C 
BRANCH   7   8
ATOM      8  N   ASN A   1      12.846   2.262   5.933  0.00  0.00    -0.239 NA
ATOM      9  H   ASN A   1      13.373   2.619   5.111  0.00  0.00    +0.142 HD
ENDBRANCH   7   8
BRANCH   7  10
ATOM     10  C   ASN A   1      10.782   3.608   5.838  0.00  0.00    +0.225 C 
ATOM     11  O   ASN A   1      10.975   4.069   4.693  0.00  0.00    -0.287 OA
ENDBRANCH   7  10
ENDBRANCH   1   7
TORSDOF 4
REMARK  Name = ../refined-set-2016/2wej/2wej_pocket.pdb
REMARK  143 active torsions:
REMARK  status: ('A' for Active; 'I' for Inactive)
REMARK    1  A    between atoms: _1  and  _3
REMARK    2  A    between atoms: _3  and  _4
REMARK    3  A    between atoms: _3  and  _6
REMARK    4  A    between atoms: _6  and  _7
REMARK    5  A    between atoms: _17  and  _19
REMARK    6  A    between atoms: _19  and  _20
REMARK    7  A    between atoms: _19  and  _22
REMARK    8  A    between atoms: _22  and  _23
REMARK    9  A    between atoms: _28  and  _29
REMARK   10  A    between atoms: _31  and  _33
REMARK   11  A    between atoms: _33  and  _34
REMARK   12  A    between atoms: _33  and  _36
REMARK   13  A    between atoms: _36  and  _37
REMARK   14  A    between atoms: _40  and  _41
REMARK   15  A    between atoms: _46  and  _48
REMARK   16  A    between atoms: _48  and  _49
REMARK   17  A    between atoms: _48  and  _51
REMARK   18  A    between atoms: _51  and  _52
REMARK   19  A    between atoms: _57  and  _59
REMARK   20  A    between atoms: _59  and  _60
REMARK   21  A    between atoms: _63  and  _65
REMARK   22  A    between atoms: _65  and  _66
REMARK   23  A    between atoms: _65  and  _68
REMARK   24  A    between atoms: _68  and  _69
REMARK   25  A    between atoms: _74  and  _76
REMARK   26  A    between atoms: _76  and  _77
REMARK   27  A    between atoms: _76  and  _79
REMARK   28  A    between atoms: _79  and  _80
REMARK   29  A    between atoms: _83  and  _85
REMARK   30  A    between atoms: _85  and  _86
REMARK   31  A    between atoms: _85  and  _88
REMARK   32  A    between atoms: _88  and  _89
REMARK   33  A    between atoms: _89  and  _90
REMARK   34  A    between atoms: _95  and  _97
REMARK   35  A    between atoms: _97  and  _98
REMARK   36  A    between atoms: _97  and  _100
REMARK   37  A    between atoms: _100  and  _101
REMARK   38  A    between atoms: _107  and  _109
REMARK   39  A    between atoms: _120  and  _123
REMARK   40  A    between atoms: _123  and  _124
REMARK   41  A    between atoms: _132  and  _133
REMARK   42  A    between atoms: _141  and  _143
REMARK   43  A    between atoms: _143  and  _144
REMARK   44  A    between atoms: _143  and  _146
REMARK   45  A    between atoms: _146  and  _147
REMARK   46  A    between atoms: _147  and  _148
REMARK   47  A    between atoms: _151  and  _153
REMARK   48  A    between atoms: _153  and  _154
REMARK   49  A    between atoms: _153  and  _156
REMARK   50  A    between atoms: _156  and  _157
REMARK   51  A    between atoms: _162  and  _164
REMARK   52  A    between atoms: _164  and  _165
REMARK   53  A    between atoms: _164  and  _167
REMARK   54  A    between atoms: _167  and  _168
REMARK   55  A    between atoms: _168  and  _169
REMARK   56  A    between atoms: _172  and  _174
REMARK   57  A    between atoms: _174  and  _175
REMARK   58  A    between atoms: _174  and  _177
REMARK   59  A    between atoms: _177  and  _178
REMARK   60  A    between atoms: _181  and  _183
REMARK   61  A    between atoms: _183  and  _184
REMARK   62  A    between atoms: _183  and  _186
REMARK   63  A    between atoms: _186  and  _187
REMARK   64  A    between atoms: _188  and  ZN_403
REMARK   65  A    between atoms: _192  and  _194
REMARK   66  A    between atoms: _194  and  _195
REMARK   67  A    between atoms: _194  and  _197
REMARK   68  A    between atoms: _197  and  _198
REMARK   69  A    between atoms: _201  and  _203
REMARK   70  A    between atoms: _203  and  _204
REMARK   71  A    between atoms: _203  and  _206
REMARK   72  A    between atoms: _209  and  _211
REMARK   73  A    between atoms: _211  and  _212
REMARK   74  A    between atoms: _211  and  _214
REMARK   75  A    between atoms: _214  and  _215
REMARK   76  A    between atoms: _220  and  _222
REMARK   77  A    between atoms: _222  and  _223
REMARK   78  A    between atoms: _222  and  _225
REMARK   79  A    between atoms: _225  and  _226
REMARK   80  A    between atoms: _232  and  _234
REMARK   81  A    between atoms: _234  and  _235
REMARK   82  A    between atoms: _234  and  _237
REMARK   83  A    between atoms: _240  and  _242
REMARK   84  A    between atoms: _242  and  _243
REMARK   85  A    between atoms: _242  and  _245
REMARK   86  A    between atoms: _245  and  _246
REMARK   87  A    between atoms: _249  and  _251
REMARK   88  A    between atoms: _251  and  _252
REMARK   89  A    between atoms: _255  and  _257
REMARK   90  A    between atoms: _257  and  _258
REMARK   91  A    between atoms: _257  and  _260
REMARK   92  A    between atoms: _263  and  _265
REMARK   93  A    between atoms: _265  and  _266
REMARK   94  A    between atoms: _265  and  _268
REMARK   95  A    between atoms: _268  and  _269
REMARK   96  A    between atoms: _272  and  _274
REMARK   97  A    between atoms: _274  and  _275
REMARK   98  A    between atoms: _277  and  _279
REMARK   99  A    between atoms: _279  and  _280
REMARK  100  A    between atoms: _279  and  _282
REMARK  101  A    between atoms: _282  and  _283
REMARK  102  A    between atoms: _285  and  _287
REMARK  103  A    between atoms: _287  and  _288
REMARK  104  A    between atoms: _287  and  _290
REMARK  105  A    between atoms: _290  and  _291
REMARK  106  A    between atoms: _294  and  _296
REMARK  107  A    between atoms: _296  and  _297
REMARK  108  A    between atoms: _296  and  _299
REMARK  109  A    between atoms: _299  and  _300
REMARK  110  A    between atoms: _303  and  _305
REMARK  111  A    between atoms: _305  and  _306
REMARK  112  A    between atoms: _305  and  _308
REMARK  113  A    between atoms: _308  and  _309
REMARK  114  A    between atoms: _313  and  _314
REMARK  115  A    between atoms: _320  and  _321
REMARK  116  A    between atoms: _326  and  _328
REMARK  117  A    between atoms: _328  and  _329
REMARK  118  A    between atoms: _328  and  _331
REMARK  119  A    between atoms: _331  and  _332
REMARK  120  A    between atoms: _335  and  _337
REMARK  121  A    between atoms: _337  and  _338
REMARK  122  A    between atoms: _337  and  _340
REMARK  123  A    between atoms: _340  and  _341
REMARK  124  A    between atoms: _344  and  _346
REMARK  125  A    between atoms: _346  and  _347
REMARK  126  A    between atoms: _346  and  _349
REMARK  127  A    between atoms: _351  and  _353
REMARK  128  A    between atoms: _353  and  _354
REMARK  129  A    between atoms: _353  and  _356
REMARK  130  A    between atoms: _359  and  _361
REMARK  131  A    between atoms: _361  and  _362
REMARK  132  A    between atoms: _361  and  _364
REMARK  133  A    between atoms: _364  and  _365
REMARK  134  A    between atoms: _375  and  _377
REMARK  135  A    between atoms: _377  and  _378
REMARK  136  A    between atoms: _377  and  _380
REMARK  137  A    between atoms: _380  and  _381
REMARK  138  A    between atoms: _386  and  _388
REMARK  139  A    between atoms: _388  and  _389
REMARK  140  A    between atoms: _388  and  _391
REMARK  141  A    between atoms: _391  and  _392
REMARK  142  A    between atoms: _392  and  _393
REMARK  143  A    between atoms: _393  and  _394
REMARK                            x       y       z     vdW  Elec       q    Type
REMARK                         _______ _______ _______ _____ _____    ______ ____
ROOT
ATOM      1  C   UNK A   4      10.894   0.269  10.415  0.00  0.00    +0.000 C 
ATOM      2  C   UNK A   4      10.858  -1.013  11.226  0.00  0.00    +0.000 C 
ATOM      3  O   UNK A   4      10.217  -1.053  12.253  0.00  0.00    +0.000 OA
ATOM      4  N   VAL A   5      11.567  -2.039  10.718  0.00  0.00    +0.000 N 
ATOM      5  CA  VAL A   5      11.604  -3.339  11.399  0.00  0.00    +0.000 C 
ATOM      6  C   VAL A   5      13.060  -3.777  11.609  0.00  0.00    +0.000 C 
ATOM      7  N   UNK A   6      13.238  -4.752  12.518  0.00  0.00    +0.000 N 
ATOM      8  H   UNK A   6      12.455  -4.968  13.167  0.00  0.00    +0.000 HD
ATOM      9  C   UNK A   6      14.485  -5.532  12.645  0.00  0.00    +0.000 C 
ATOM     10  C   UNK A   6      15.169  -5.271  13.996  0.00  0.00    +0.000 C 
ATOM     11  C   UNK A   6      15.421  -3.817  14.269  0.00  0.00    +0.000 A 
ATOM     12  C   UNK A   6      14.602  -2.839  14.728  0.00  0.00    +0.000 A 
ATOM     13  N   UNK A   6      15.343  -1.676  14.788  0.00  0.00    +0.000 N 
ATOM     14 ZN   UNK A   6      14.575   0.131  15.423  0.00  0.00    +0.000 Zn
ATOM     15  N   UNK A   4      13.747   1.012  13.743  0.00  0.00    +0.000 N 
ATOM     16  C   UNK A   4      13.284   2.245  13.547  0.00  0.00    +0.000 A 
ATOM     17  N   UNK A   4      12.728   2.299  12.350  0.00  0.00    +0.000 NA
ATOM     18  C   UNK A   4      12.877   1.075  11.724  0.00  0.00    +0.000 A 
ATOM     19  C   UNK A   4      13.498   0.261  12.625  0.00  0.00    +0.000 A 
ATOM     20  C   UNK A   6      16.570  -1.938  14.378  0.00  0.00    +0.000 A 
ATOM     21  N   UNK A   6      16.648  -3.229  14.054  0.00  0.00    +0.000 NA
ATOM     22  O   VAL A   5      13.968  -3.300  10.945  0.00  0.00    +0.000 OA
ATOM     23  H   VAL A   5      12.095  -1.909   9.832  0.00  0.00    +0.000 HD
ATOM     24  C   UNK A   4      12.321   0.797  10.366  0.00  0.00    +0.000 C 
ENDROOT
BRANCH  14  25
ATOM     25  N   UNK A   6      13.062  -0.633  16.663  0.00  0.00    +0.000 N 
ATOM     26  C   UNK A   6      13.403  -1.546  17.551  0.00  0.00    +0.000 A 
ATOM     27  N   UNK A   6      12.301  -1.965  18.163  0.00  0.00    +0.000 NA
ATOM     28  C   UNK A   6      11.220  -1.291  17.637  0.00  0.00    +0.000 A 
ATOM     29  C   UNK A   6      11.701  -0.441  16.701  0.00  0.00    +0.000 A 
BRANCH  29  30
ATOM     30  C   UNK A   6      10.992   0.538  15.823  0.00  0.00    +0.000 C 
BRANCH  30  31
ATOM     31  C   UNK A   6       9.488   0.261  15.708  0.00  0.00    +0.000 C 
BRANCH  31  32
ATOM     32  C   UNK A   6       8.806   1.452  15.044  0.00  0.00    +0.000 C 
ATOM     33  N   UNK A   4       7.801   2.011  15.759  0.00  0.00    +0.000 N 
ATOM     34  H   UNK A   4       7.508   1.552  16.645  0.00  0.00    +0.000 HD
ATOM     35  O   UNK A   6       9.180   1.846  13.924  0.00  0.00    +0.000 OA
BRANCH  33  36
ATOM     36  C   UNK A   4       7.095   3.256  15.333  0.00  0.00    +0.000 C 
BRANCH  36  37
ATOM     37  C   UNK A   4       7.720   4.420  16.100  0.00  0.00    +0.000 C 
ATOM     38  O   UNK A   4       7.605   4.494  17.319  0.00  0.00    +0.000 OA
ATOM     39  N   VAL A   5       8.431   5.268  15.351  0.00  0.00    +0.000 N 
ATOM     40  H   VAL A   5       8.369   5.205  14.315  0.00  0.00    +0.000 HD
BRANCH  39  41
ATOM     41  CA  VAL A   5       9.302   6.292  15.959  0.00  0.00    +0.000 C 
BRANCH  41  42
ATOM     42  C   VAL A   5       8.608   7.638  16.001  0.00  0.00    +0.000 C 
ATOM     43  N   UNK A   6       8.586   8.247  17.199  0.00  0.00    +0.000 N 
ATOM     44  H   UNK A   6       9.075   7.801  18.001  0.00  0.00    +0.000 HD
ATOM     45  O   VAL A   5       8.160   8.129  14.940  0.00  0.00    +0.000 OA
BRANCH  43  46
ATOM     46  C   UNK A   6       7.882   9.540  17.410  0.00  0.00    +0.000 C 
BRANCH  46  47
ATOM     47  C   UNK A   6       8.768  10.539  18.135  0.00  0.00    +0.000 C 
ATOM     48  O   UNK A   6       9.535  10.149  18.997  0.00  0.00    +0.000 OA
ENDBRANCH  46  47
BRANCH  46  49
ATOM     49  C   UNK A   6       6.609   9.361  18.274  0.00  0.00    +0.000 C 
BRANCH  49  50
ATOM     50  C   UNK A   6       5.699   8.251  17.840  0.00  0.00    +0.000 A 
ATOM     51  N   UNK A   6       6.014   6.924  18.048  0.00  0.00    +0.000 NA
ATOM     52  C   UNK A   6       5.015   6.167  17.606  0.00  0.00    +0.000 A 
ATOM     53  N   UNK A   6       4.055   6.958  17.147  0.00  0.00    +0.000 NA
ATOM     54  C   UNK A   6       4.447   8.267  17.311  0.00  0.00    +0.000 A 
ENDBRANCH  49  50
ENDBRANCH  46  49
ENDBRANCH  43  46
ENDBRANCH  41  42
BRANCH  41  55
ATOM     55  CB  VAL A   5      10.638   6.414  15.181  0.00  0.00    +0.000 C 
ATOM     56  CG2 VAL A   5      11.574   7.508  15.799  0.00  0.00    +0.000 C 
ATOM     57  CG1 VAL A   5      11.372   5.037  15.082  0.00  0.00    +0.000 C 
ENDBRANCH  41  55
ENDBRANCH  39  41
ENDBRANCH  36  37
BRANCH  36  58
ATOM     58  C   UNK A   4       5.584   3.151  15.545  0.00  0.00    +0.000 C 
BRANCH  58  59
ATOM     59  C   UNK A   4       4.914   2.099  14.627  0.00  0.00    +0.000 C 
ATOM     60  C   UNK A   4       4.089   1.163  15.483  0.00  0.00    +0.000 C 
ATOM     61  C   UNK A   4       4.032   2.788  13.571  0.00  0.00    +0.000 C 
ENDBRANCH  58  59
ENDBRANCH  36  58
ENDBRANCH  33  36
ENDBRANCH  31  32
BRANCH  31  62
ATOM     62  N   UNK A   6       9.251  -0.970  14.922  0.00  0.00    +0.000 N 
ATOM     63  C   LEU A   2       8.606  -2.023  15.443  0.00  0.00    +0.000 C 
ATOM     64  O   LEU A   2       8.193  -2.087  16.609  0.00  0.00    +0.000 OA
ATOM     65  H   UNK A   6       9.593  -1.019  13.941  0.00  0.00    +0.000 HD
BRANCH  63  66
ATOM     66  CA  LEU A   2       8.356  -3.182  14.457  0.00  0.00    +0.000 C 
BRANCH  66  67
ATOM     67  N   LEU A   2       8.762  -4.432  15.085  0.00  0.00    +0.000 N 
ATOM     68  H   LEU A   2       8.057  -4.933  15.663  0.00  0.00    +0.000 HD
ATOM     69  C   GLU A   1       9.977  -4.983  14.972  0.00  0.00    +0.000 C 
ATOM     70  O   GLU A   1      10.874  -4.582  14.212  0.00  0.00    +0.000 OA
BRANCH  69  71
ATOM     71  CA  GLU A   1      10.206  -6.254  15.821  0.00  0.00    +0.000 C 
BRANCH  71  72
ATOM     72  N   GLU A   1      10.734  -7.322  14.954  0.00  0.00    +0.000 NA
ATOM     73  H   GLU A   1      11.399  -7.067  14.197  0.00  0.00    +0.000 HD
ENDBRANCH  71  72
BRANCH  71  74
ATOM     74  CB  GLU A   1      11.163  -6.020  17.013  0.00  0.00    +0.000 C 
BRANCH  74  75
ATOM     75  CG  GLU A   1      10.647  -5.076  18.101  0.00  0.00    +0.000 C 
BRANCH  75  76
ATOM     76  CD  GLU A   1      11.608  -4.987  19.280  0.00  0.00    +0.000 C 
ATOM     77  OE2 GLU A   1      11.651  -3.925  19.947  0.00  0.00    +0.000 OA
ATOM     78  OE1 GLU A   1      12.258  -6.011  19.588  0.00  0.00    +0.000 OA
ENDBRANCH  75  76
ENDBRANCH  74  75
ENDBRANCH  71  74
ENDBRANCH  69  71
ENDBRANCH  66  67
BRANCH  66  79
ATOM     79  CB  LEU A   2       6.856  -3.257  14.103  0.00  0.00    +0.000 C 
BRANCH  79  80
ATOM     80  CG  LEU A   2       6.104  -1.971  13.700  0.00  0.00    +0.000 C 
ATOM     81  CD2 LEU A   2       4.641  -2.328  13.465  0.00  0.00    +0.000 C 
ATOM     82  CD1 LEU A   2       6.709  -1.286  12.487  0.00  0.00    +0.000 C 
ENDBRANCH  79  80
ENDBRANCH  66  79
ENDBRANCH  63  66
ENDBRANCH  31  62
ENDBRANCH  30  31
ENDBRANCH  29  30
ENDBRANCH  14  25
BRANCH   1  84
ATOM     83  C   UNK A   3       9.473   2.270  10.321  0.00  0.00    +0.000 C 
ATOM     84  N   UNK A   4      10.002   1.255  11.020  0.00  0.00    +0.000 N 
ATOM     85  H   UNK A   4       9.769   1.167  12.030  0.00  0.00    +0.000 HD
ATOM     86  O   UNK A   3       9.711   2.499   9.127  0.00  0.00    +0.000 OA
BRANCH  83  87
ATOM     87  C   UNK A   3       8.528   3.150  11.116  0.00  0.00    +0.000 C 
BRANCH  87  90
ATOM     88  C   LEU A   2       8.593   5.584  11.227  0.00  0.00    +0.000 C 
ATOM     89  O   LEU A   2       8.566   5.629  12.450  0.00  0.00    +0.000 OA
ATOM     90  N   UNK A   3       8.380   4.479  10.491  0.00  0.00    +0.000 N 
ATOM     91  H   UNK A   3       8.113   4.560   9.489  0.00  0.00    +0.000 HD
BRANCH  88  92
ATOM     92  CA  LEU A   2       8.857   6.853  10.461  0.00  0.00    +0.000 C 
BRANCH  92  94
ATOM     93  C   GLU A   1       8.404   9.232  10.789  0.00  0.00    +0.000 C 
ATOM     94  N   LEU A   2       8.559   8.010  11.320  0.00  0.00    +0.000 N 
ATOM     95  H   LEU A   2       8.468   7.879  12.348  0.00  0.00    +0.000 HD
ATOM     96  O   GLU A   1       8.514   9.453   9.590  0.00  0.00    +0.000 OA
BRANCH  93  97
ATOM     97  CA  GLU A   1       8.133  10.386  11.777  0.00  0.00    +0.000 C 
BRANCH  97  98
ATOM     98  CB  GLU A   1       9.441  11.071  12.309  0.00  0.00    +0.000 C 
ATOM     99  CG2 GLU A   1      10.143  10.216  13.389  0.00  0.00    +0.000 C 
BRANCH  98 100
ATOM    100  CG1 GLU A   1      10.389  11.458  11.166  0.00  0.00    +0.000 C 
ATOM    101  CD1 GLU A   1      11.522  12.391  11.591  0.00  0.00    +0.000 C 
ENDBRANCH  98 100
ENDBRANCH  97  98
BRANCH  97 102
ATOM    102  N   GLU A   1       7.241  10.021  12.878  0.00  0.00    +0.000 NA
ATOM    103  H   GLU A   1       7.592   9.388  13.625  0.00  0.00    +0.000 HD
ENDBRANCH  97 102
ENDBRANCH  93  97
ENDBRANCH  92  94
BRANCH  92 104
ATOM    104  CB  LEU A   2      10.313   6.886   9.941  0.00  0.00    +0.000 C 
BRANCH 104 105
ATOM    105  CG  LEU A   2      11.415   7.005  11.035  0.00  0.00    +0.000 C 
BRANCH 105 106
ATOM    106  CD  LEU A   2      12.172   5.717  11.342  0.00  0.00    +0.000 C 
ATOM    107  NE2 LEU A   2      13.435   5.858  11.721  0.00  0.00    +0.000 N 
ATOM    108 HE21 LEU A   2      13.987   5.026  12.011  0.00  0.00    +0.000 HD
ATOM    109 HE22 LEU A   2      13.873   6.801  11.729  0.00  0.00    +0.000 HD
ATOM    110  OE1 LEU A   2      11.600   4.618  11.314  0.00  0.00    +0.000 OA
ENDBRANCH 105 106
ENDBRANCH 104 105
ENDBRANCH  92 104
ENDBRANCH  88  92
ENDBRANCH  87  90
BRANCH  87 111
ATOM    111  C   UNK A   3       7.175   2.469  11.383  0.00  0.00    +0.000 C 
BRANCH 111 112
ATOM    112  C   UNK A   3       6.418   1.994  10.146  0.00  0.00    +0.000 A 
ATOM    113  C   UNK A   3       5.299   2.694   9.695  0.00  0.00    +0.000 A 
ATOM    114  C   UNK A   3       4.571   2.237   8.602  0.00  0.00    +0.000 A 
ATOM    115  C   UNK A   3       4.981   1.102   7.900  0.00  0.00    +0.000 A 
ATOM    116  C   UNK A   3       6.096   0.375   8.343  0.00  0.00    +0.000 A 
ATOM    117  C   UNK A   3       6.807   0.840   9.467  0.00  0.00    +0.000 A 
ENDBRANCH 111 112
ENDBRANCH  87 111
ENDBRANCH  83  87
ENDBRANCH   1  84
BRANCH   9 118
ATOM    118  C   UNK A   6      14.042  -6.985  12.518  0.00  0.00    +0.000 C 
ATOM    119  O   UNK A   6      12.972  -7.340  13.061  0.00  0.00    +0.000 OA
ENDBRANCH   9 118
BRANCH   5 120
ATOM    120  CB  VAL A   5      10.911  -4.414  10.514  0.00  0.00    +0.000 C 
BRANCH 120 121
ATOM    121  CG  VAL A   5       9.461  -4.118  10.164  0.00  0.00    +0.000 A 
ATOM    122  CD2 VAL A   5       8.442  -4.753  10.850  0.00  0.00    +0.000 A 
ATOM    123  CE2 VAL A   5       7.104  -4.521  10.510  0.00  0.00    +0.000 A 
ATOM    124  CZ  VAL A   5       6.802  -3.660   9.451  0.00  0.00    +0.000 A 
ATOM    125  CE1 VAL A   5       7.803  -3.064   8.726  0.00  0.00    +0.000 A 
ATOM    126  CD1 VAL A   5       9.136  -3.283   9.092  0.00  0.00    +0.000 A 
ENDBRANCH 120 121
ENDBRANCH   5 120
TORSDOF 42
REMARK  Name = ../refined-set-2016/2wej/2wej_pocket.pdb
REMARK  143 active torsions:
REMARK  status: ('A' for Active; 'I' for Inactive)
REMARK    1  A    between atoms: _1  and  _3
REMARK    2  A    between atoms: _3  and  _4
REMARK    3  A    between atoms: _3  and  _6
REMARK    4  A    between atoms: _6  and  _7
REMARK    5  A    between atoms: _17  and  _19
REMARK    6  A    between atoms: _19  and  _20
REMARK    7  A    between atoms: _19  and  _22
REMARK    8  A    between atoms: _22  and  _23
REMARK    9  A    between atoms: _28  and  _29
REMARK   10  A    between atoms: _31  and  _33
REMARK   11  A    between atoms: _33  and  _34
REMARK   12  A    between atoms: _33  and  _36
REMARK   13  A    between atoms: _36  and  _37
REMARK   14  A    between atoms: _40  and  _41
REMARK   15  A    between atoms: _46  and  _48
REMARK   16  A    between atoms: _48  and  _49
REMARK   17  A    between atoms: _48  and  _51
REMARK   18  A    between atoms: _51  and  _52
REMARK   19  A    between atoms: _57  and  _59
REMARK   20  A    between atoms: _59  and  _60
REMARK   21  A    between atoms: _63  and  _65
REMARK   22  A    between atoms: _65  and  _66
REMARK   23  A    between atoms: _65  and  _68
REMARK   24  A    between atoms: _68  and  _69
REMARK   25  A    between atoms: _74  and  _76
REMARK   26  A    between atoms: _76  and  _77
REMARK   27  A    between atoms: _76  and  _79
REMARK   28  A    between atoms: _79  and  _80
REMARK   29  A    between atoms: _83  and  _85
REMARK   30  A    between atoms: _85  and  _86
REMARK   31  A    between atoms: _85  and  _88
REMARK   32  A    between atoms: _88  and  _89
REMARK   33  A    between atoms: _89  and  _90
REMARK   34  A    between atoms: _95  and  _97
REMARK   35  A    between atoms: _97  and  _98
REMARK   36  A    between atoms: _97  and  _100
REMARK   37  A    between atoms: _100  and  _101
REMARK   38  A    between atoms: _107  and  _109
REMARK   39  A    between atoms: _120  and  _123
REMARK   40  A    between atoms: _123  and  _124
REMARK   41  A    between atoms: _132  and  _133
REMARK   42  A    between atoms: _141  and  _143
REMARK   43  A    between atoms: _143  and  _144
REMARK   44  A    between atoms: _143  and  _146
REMARK   45  A    between atoms: _146  and  _147
REMARK   46  A    between atoms: _147  and  _148
REMARK   47  A    between atoms: _151  and  _153
REMARK   48  A    between atoms: _153  and  _154
REMARK   49  A    between atoms: _153  and  _156
REMARK   50  A    between atoms: _156  and  _157
REMARK   51  A    between atoms: _162  and  _164
REMARK   52  A    between atoms: _164  and  _165
REMARK   53  A    between atoms: _164  and  _167
REMARK   54  A    between atoms: _167  and  _168
REMARK   55  A    between atoms: _168  and  _169
REMARK   56  A    between atoms: _172  and  _174
REMARK   57  A    between atoms: _174  and  _175
REMARK   58  A    between atoms: _174  and  _177
REMARK   59  A    between atoms: _177  and  _178
REMARK   60  A    between atoms: _181  and  _183
REMARK   61  A    between atoms: _183  and  _184
REMARK   62  A    between atoms: _183  and  _186
REMARK   63  A    between atoms: _186  and  _187
REMARK   64  A    between atoms: _188  and  ZN_403
REMARK   65  A    between atoms: _192  and  _194
REMARK   66  A    between atoms: _194  and  _195
REMARK   67  A    between atoms: _194  and  _197
REMARK   68  A    between atoms: _197  and  _198
REMARK   69  A    between atoms: _201  and  _203
REMARK   70  A    between atoms: _203  and  _204
REMARK   71  A    between atoms: _203  and  _206
REMARK   72  A    between atoms: _209  and  _211
REMARK   73  A    between atoms: _211  and  _212
REMARK   74  A    between atoms: _211  and  _214
REMARK   75  A    between atoms: _214  and  _215
REMARK   76  A    between atoms: _220  and  _222
REMARK   77  A    between atoms: _222  and  _223
REMARK   78  A    between atoms: _222  and  _225
REMARK   79  A    between atoms: _225  and  _226
REMARK   80  A    between atoms: _232  and  _234
REMARK   81  A    between atoms: _234  and  _235
REMARK   82  A    between atoms: _234  and  _237
REMARK   83  A    between atoms: _240  and  _242
REMARK   84  A    between atoms: _242  and  _243
REMARK   85  A    between atoms: _242  and  _245
REMARK   86  A    between atoms: _245  and  _246
REMARK   87  A    between atoms: _249  and  _251
REMARK   88  A    between atoms: _251  and  _252
REMARK   89  A    between atoms: _255  and  _257
REMARK   90  A    between atoms: _257  and  _258
REMARK   91  A    between atoms: _257  and  _260
REMARK   92  A    between atoms: _263  and  _265
REMARK   93  A    between atoms: _265  and  _266
REMARK   94  A    between atoms: _265  and  _268
REMARK   95  A    between atoms: _268  and  _269
REMARK   96  A    between atoms: _272  and  _274
REMARK   97  A    between atoms: _274  and  _275
REMARK   98  A    between atoms: _277  and  _279
REMARK   99  A    between atoms: _279  and  _280
REMARK  100  A    between atoms: _279  and  _282
REMARK  101  A    between atoms: _282  and  _283
REMARK  102  A    between atoms: _285  and  _287
REMARK  103  A    between atoms: _287  and  _288
REMARK  104  A    between atoms: _287  and  _290
REMARK  105  A    between atoms: _290  and  _291
REMARK  106  A    between atoms: _294  and  _296
REMARK  107  A    between atoms: _296  and  _297
REMARK  108  A    between atoms: _296  and  _299
REMARK  109  A    between atoms: _299  and  _300
REMARK  110  A    between atoms: _303  and  _305
REMARK  111  A    between atoms: _305  and  _306
REMARK  112  A    between atoms: _305  and  _308
REMARK  113  A    between atoms: _308  and  _309
REMARK  114  A    between atoms: _313  and  _314
REMARK  115  A    between atoms: _320  and  _321
REMARK  116  A    between atoms: _326  and  _328
REMARK  117  A    between atoms: _328  and  _329
REMARK  118  A    between atoms: _328  and  _331
REMARK  119  A    between atoms: _331  and  _332
REMARK  120  A    between atoms: _335  and  _337
REMARK  121  A    between atoms: _337  and  _338
REMARK  122  A    between atoms: _337  and  _340
REMARK  123  A    between atoms: _340  and  _341
REMARK  124  A    between atoms: _344  and  _346
REMARK  125  A    between atoms: _346  and  _347
REMARK  126  A    between atoms: _346  and  _349
REMARK  127  A    between atoms: _351  and  _353
REMARK  128  A    between atoms: _353  and  _354
REMARK  129  A    between atoms: _353  and  _356
REMARK  130  A    between atoms: _359  and  _361
REMARK  131  A    between atoms: _361  and  _362
REMARK  132  A    between atoms: _361  and  _364
REMARK  133  A    between atoms: _364  and  _365
REMARK  134  A    between atoms: _375  and  _377
REMARK  135  A    between atoms: _377  and  _378
REMARK  136  A    between atoms: _377  and  _380
REMARK  137  A    between atoms: _380  and  _381
REMARK  138  A    between atoms: _386  and  _388
REMARK  139  A    between atoms: _388  and  _389
REMARK  140  A    between atoms: _388  and  _391
REMARK  141  A    between atoms: _391  and  _392
REMARK  142  A    between atoms: _392  and  _393
REMARK  143  A    between atoms: _393  and  _394
REMARK                            x       y       z     vdW  Elec       q    Type
REMARK                         _______ _______ _______ _____ _____    ______ ____
ROOT
ATOM      1  C   GLU A   1      15.409  -6.787  21.176  0.00  0.00    +0.238 C 
ATOM      2  O   GLU A   1      16.216  -7.338  21.969  0.00  0.00    -0.274 OA
ATOM      3  N   HIS A   2      14.204  -6.392  21.575  0.00  0.00    -0.298 N 
ATOM      4  H   HIS A   2      13.584  -5.857  20.934  0.00  0.00    +0.150 HD
ENDROOT
BRANCH   1   5
ATOM      5  CA  GLU A   1      15.741  -6.605  19.695  0.00  0.00    +0.145 C 
BRANCH   5   6
ATOM      6  N   GLU A   1      14.741  -7.309  18.884  0.00  0.00    -0.238 NA
ATOM      7  H   GLU A   1      13.882  -6.792  18.607  0.00  0.00    +0.142 HD
ENDBRANCH   5   6
BRANCH   5   8
ATOM      8  CB  GLU A   1      15.737  -5.134  19.286  0.00  0.00    +0.038 C 
BRANCH   8   9
ATOM      9  CG  GLU A   1      16.218  -4.997  17.862  0.00  0.00    +0.116 C 
BRANCH   9  10
ATOM     10  CD  GLU A   1      16.920  -3.701  17.537  0.00  0.00    +0.365 C 
ATOM     11  OE2 GLU A   1      16.337  -2.609  17.741  0.00  0.00    -0.246 OA
ATOM     12  OE1 GLU A   1      18.072  -3.764  17.039  0.00  0.00    -0.246 OA
ENDBRANCH   9  10
ENDBRANCH   8   9
ENDBRANCH   5   8
ENDBRANCH   1   5
BRANCH   3  13
ATOM     13  CA  HIS A   2      13.761  -6.723  22.936  0.00  0.00    +0.143 C 
BRANCH  13  14
ATOM     14  C   HIS A   2      13.462  -8.201  23.003  0.00  0.00    +0.227 C 
ATOM     15  O   HIS A   2      13.113  -8.831  21.981  0.00  0.00    -0.286 OA
ENDBRANCH  13  14
BRANCH  13  16
ATOM     16  CB  HIS A   2      12.529  -5.897  23.325  0.00  0.00    +0.075 C 
BRANCH  16  17
ATOM     17  CG  HIS A   2      12.843  -4.451  23.516  0.00  0.00    +0.082 A 
ATOM     18  CD2 HIS A   2      13.288  -3.759  24.597  0.00  0.00    +0.115 A 
ATOM     19  NE2 HIS A   2      13.494  -2.464  24.189  0.00  0.00    -0.221 NA
ATOM     20  CE1 HIS A   2      13.176  -2.358  22.914  0.00  0.00    +0.199 A 
ATOM     21  ND1 HIS A   2      12.784  -3.548  22.480  0.00  0.00    -0.227 NA
ENDBRANCH  16  17
ENDBRANCH  13  16
ENDBRANCH   3  13
TORSDOF 9
REMARK  Name = ../refined-set-2016/2wej/2wej_pocket.pdb
REMARK  143 active torsions:
REMARK  status: ('A' for Active; 'I' for Inactive)
REMARK    1  A    between atoms: _1  and  _3
REMARK    2  A    between atoms: _3  and  _4
REMARK    3  A    between atoms: _3  and  _6
REMARK    4  A    between atoms: _6  and  _7
REMARK    5  A    between atoms: _17  and  _19
REMARK    6  A    between atoms: _19  and  _20
REMARK    7  A    between atoms: _19  and  _22
REMARK    8  A    between atoms: _22  and  _23
REMARK    9  A    between atoms: _28  and  _29
REMARK   10  A    between atoms: _31  and  _33
REMARK   11  A    between atoms: _33  and  _34
REMARK   12  A    between atoms: _33  and  _36
REMARK   13  A    between atoms: _36  and  _37
REMARK   14  A    between atoms: _40  and  _41
REMARK   15  A    between atoms: _46  and  _48
REMARK   16  A    between atoms: _48  and  _49
REMARK   17  A    between atoms: _48  and  _51
REMARK   18  A    between atoms: _51  and  _52
REMARK   19  A    between atoms: _57  and  _59
REMARK   20  A    between atoms: _59  and  _60
REMARK   21  A    between atoms: _63  and  _65
REMARK   22  A    between atoms: _65  and  _66
REMARK   23  A    between atoms: _65  and  _68
REMARK   24  A    between atoms: _68  and  _69
REMARK   25  A    between atoms: _74  and  _76
REMARK   26  A    between atoms: _76  and  _77
REMARK   27  A    between atoms: _76  and  _79
REMARK   28  A    between atoms: _79  and  _80
REMARK   29  A    between atoms: _83  and  _85
REMARK   30  A    between atoms: _85  and  _86
REMARK   31  A    between atoms: _85  and  _88
REMARK   32  A    between atoms: _88  and  _89
REMARK   33  A    between atoms: _89  and  _90
REMARK   34  A    between atoms: _95  and  _97
REMARK   35  A    between atoms: _97  and  _98
REMARK   36  A    between atoms: _97  and  _100
REMARK   37  A    between atoms: _100  and  _101
REMARK   38  A    between atoms: _107  and  _109
REMARK   39  A    between atoms: _120  and  _123
REMARK   40  A    between atoms: _123  and  _124
REMARK   41  A    between atoms: _132  and  _133
REMARK   42  A    between atoms: _141  and  _143
REMARK   43  A    between atoms: _143  and  _144
REMARK   44  A    between atoms: _143  and  _146
REMARK   45  A    between atoms: _146  and  _147
REMARK   46  A    between atoms: _147  and  _148
REMARK   47  A    between atoms: _151  and  _153
REMARK   48  A    between atoms: _153  and  _154
REMARK   49  A    between atoms: _153  and  _156
REMARK   50  A    between atoms: _156  and  _157
REMARK   51  A    between atoms: _162  and  _164
REMARK   52  A    between atoms: _164  and  _165
REMARK   53  A    between atoms: _164  and  _167
REMARK   54  A    between atoms: _167  and  _168
REMARK   55  A    between atoms: _168  and  _169
REMARK   56  A    between atoms: _172  and  _174
REMARK   57  A    between atoms: _174  and  _175
REMARK   58  A    between atoms: _174  and  _177
REMARK   59  A    between atoms: _177  and  _178
REMARK   60  A    between atoms: _181  and  _183
REMARK   61  A    between atoms: _183  and  _184
REMARK   62  A    between atoms: _183  and  _186
REMARK   63  A    between atoms: _186  and  _187
REMARK   64  A    between atoms: _188  and  ZN_403
REMARK   65  A    between atoms: _192  and  _194
REMARK   66  A    between atoms: _194  and  _195
REMARK   67  A    between atoms: _194  and  _197
REMARK   68  A    between atoms: _197  and  _198
REMARK   69  A    between atoms: _201  and  _203
REMARK   70  A    between atoms: _203  and  _204
REMARK   71  A    between atoms: _203  and  _206
REMARK   72  A    between atoms: _209  and  _211
REMARK   73  A    between atoms: _211  and  _212
REMARK   74  A    between atoms: _211  and  _214
REMARK   75  A    between atoms: _214  and  _215
REMARK   76  A    between atoms: _220  and  _222
REMARK   77  A    between atoms: _222  and  _223
REMARK   78  A    between atoms: _222  and  _225
REMARK   79  A    between atoms: _225  and  _226
REMARK   80  A    between atoms: _232  and  _234
REMARK   81  A    between atoms: _234  and  _235
REMARK   82  A    between atoms: _234  and  _237
REMARK   83  A    between atoms: _240  and  _242
REMARK   84  A    between atoms: _242  and  _243
REMARK   85  A    between atoms: _242  and  _245
REMARK   86  A    between atoms: _245  and  _246
REMARK   87  A    between atoms: _249  and  _251
REMARK   88  A    between atoms: _251  and  _252
REMARK   89  A    between atoms: _255  and  _257
REMARK   90  A    between atoms: _257  and  _258
REMARK   91  A    between atoms: _257  and  _260
REMARK   92  A    between atoms: _263  and  _265
REMARK   93  A    between atoms: _265  and  _266
REMARK   94  A    between atoms: _265  and  _268
REMARK   95  A    between atoms: _268  and  _269
REMARK   96  A    between atoms: _272  and  _274
REMARK   97  A    between atoms: _274  and  _275
REMARK   98  A    between atoms: _277  and  _279
REMARK   99  A    between atoms: _279  and  _280
REMARK  100  A    between atoms: _279  and  _282
REMARK  101  A    between atoms: _282  and  _283
REMARK  102  A    between atoms: _285  and  _287
REMARK  103  A    between atoms: _287  and  _288
REMARK  104  A    between atoms: _287  and  _290
REMARK  105  A    between atoms: _290  and  _291
REMARK  106  A    between atoms: _294  and  _296
REMARK  107  A    between atoms: _296  and  _297
REMARK  108  A    between atoms: _296  and  _299
REMARK  109  A    between atoms: _299  and  _300
REMARK  110  A    between atoms: _303  and  _305
REMARK  111  A    between atoms: _305  and  _306
REMARK  112  A    between atoms: _305  and  _308
REMARK  113  A    between atoms: _308  and  _309
REMARK  114  A    between atoms: _313  and  _314
REMARK  115  A    between atoms: _320  and  _321
REMARK  116  A    between atoms: _326  and  _328
REMARK  117  A    between atoms: _328  and  _329
REMARK  118  A    between atoms: _328  and  _331
REMARK  119  A    between atoms: _331  and  _332
REMARK  120  A    between atoms: _335  and  _337
REMARK  121  A    between atoms: _337  and  _338
REMARK  122  A    between atoms: _337  and  _340
REMARK  123  A    between atoms: _340  and  _341
REMARK  124  A    between atoms: _344  and  _346
REMARK  125  A    between atoms: _346  and  _347
REMARK  126  A    between atoms: _346  and  _349
REMARK  127  A    between atoms: _351  and  _353
REMARK  128  A    between atoms: _353  and  _354
REMARK  129  A    between atoms: _353  and  _356
REMARK  130  A    between atoms: _359  and  _361
REMARK  131  A    between atoms: _361  and  _362
REMARK  132  A    between atoms: _361  and  _364
REMARK  133  A    between atoms: _364  and  _365
REMARK  134  A    between atoms: _375  and  _377
REMARK  135  A    between atoms: _377  and  _378
REMARK  136  A    between atoms: _377  and  _380
REMARK  137  A    between atoms: _380  and  _381
REMARK  138  A    between atoms: _386  and  _388
REMARK  139  A    between atoms: _388  and  _389
REMARK  140  A    between atoms: _388  and  _391
REMARK  141  A    between atoms: _391  and  _392
REMARK  142  A    between atoms: _392  and  _393
REMARK  143  A    between atoms: _393  and  _394
REMARK                            x       y       z     vdW  Elec       q    Type
REMARK                         _______ _______ _______ _____ _____    ______ ____
ROOT
ATOM      1  CB  PHE A   1      13.535  14.327  14.116  0.00  0.00    +0.051 C 
ENDROOT
BRANCH   1   2
ATOM      2  CG  PHE A   1      14.176  12.988  14.384  0.00  0.00    -0.020 A 
ATOM      3  CD2 PHE A   1      13.482  11.990  15.070  0.00  0.00    -0.004 A 
ATOM      4  CE2 PHE A   1      14.060  10.750  15.300  0.00  0.00    -0.000 A 
ATOM      5  CZ  PHE A   1      15.346  10.497  14.877  0.00  0.00    -0.000 A 
ATOM      6  CE1 PHE A   1      16.059  11.480  14.194  0.00  0.00    -0.000 A 
ATOM      7  CD1 PHE A   1      15.475  12.716  13.948  0.00  0.00    -0.004 A 
ENDBRANCH   1   2
BRANCH   1   8
ATOM      8  CA  PHE A   1      13.682  15.340  15.268  0.00  0.00    +0.137 C 
BRANCH   8   9
ATOM      9  N   PHE A   1      13.070  16.609  14.881  0.00  0.00    -0.239 NA
ATOM     10  H   PHE A   1      12.716  16.714  13.909  0.00  0.00    +0.142 HD
ENDBRANCH   8   9
BRANCH   8  11
ATOM     11  C   PHE A   1      15.140  15.510  15.680  0.00  0.00    +0.224 C 
ATOM     12  O   PHE A   1      15.563  14.907  16.665  0.00  0.00    -0.287 OA
ENDBRANCH   8  11
ENDBRANCH   1   8
TORSDOF 4
REMARK  Name = ../refined-set-2016/2wej/2wej_pocket.pdb
REMARK  143 active torsions:
REMARK  status: ('A' for Active; 'I' for Inactive)
REMARK    1  A    between atoms: _1  and  _3
REMARK    2  A    between atoms: _3  and  _4
REMARK    3  A    between atoms: _3  and  _6
REMARK    4  A    between atoms: _6  and  _7
REMARK    5  A    between atoms: _17  and  _19
REMARK    6  A    between atoms: _19  and  _20
REMARK    7  A    between atoms: _19  and  _22
REMARK    8  A    between atoms: _22  and  _23
REMARK    9  A    between atoms: _28  and  _29
REMARK   10  A    between atoms: _31  and  _33
REMARK   11  A    between atoms: _33  and  _34
REMARK   12  A    between atoms: _33  and  _36
REMARK   13  A    between atoms: _36  and  _37
REMARK   14  A    between atoms: _40  and  _41
REMARK   15  A    between atoms: _46  and  _48
REMARK   16  A    between atoms: _48  and  _49
REMARK   17  A    between atoms: _48  and  _51
REMARK   18  A    between atoms: _51  and  _52
REMARK   19  A    between atoms: _57  and  _59
REMARK   20  A    between atoms: _59  and  _60
REMARK   21  A    between atoms: _63  and  _65
REMARK   22  A    between atoms: _65  and  _66
REMARK   23  A    between atoms: _65  and  _68
REMARK   24  A    between atoms: _68  and  _69
REMARK   25  A    between atoms: _74  and  _76
REMARK   26  A    between atoms: _76  and  _77
REMARK   27  A    between atoms: _76  and  _79
REMARK   28  A    between atoms: _79  and  _80
REMARK   29  A    between atoms: _83  and  _85
REMARK   30  A    between atoms: _85  and  _86
REMARK   31  A    between atoms: _85  and  _88
REMARK   32  A    between atoms: _88  and  _89
REMARK   33  A    between atoms: _89  and  _90
REMARK   34  A    between atoms: _95  and  _97
REMARK   35  A    between atoms: _97  and  _98
REMARK   36  A    between atoms: _97  and  _100
REMARK   37  A    between atoms: _100  and  _101
REMARK   38  A    between atoms: _107  and  _109
REMARK   39  A    between atoms: _120  and  _123
REMARK   40  A    between atoms: _123  and  _124
REMARK   41  A    between atoms: _132  and  _133
REMARK   42  A    between atoms: _141  and  _143
REMARK   43  A    between atoms: _143  and  _144
REMARK   44  A    between atoms: _143  and  _146
REMARK   45  A    between atoms: _146  and  _147
REMARK   46  A    between atoms: _147  and  _148
REMARK   47  A    between atoms: _151  and  _153
REMARK   48  A    between atoms: _153  and  _154
REMARK   49  A    between atoms: _153  and  _156
REMARK   50  A    between atoms: _156  and  _157
REMARK   51  A    between atoms: _162  and  _164
REMARK   52  A    between atoms: _164  and  _165
REMARK   53  A    between atoms: _164  and  _167
REMARK   54  A    between atoms: _167  and  _168
REMARK   55  A    between atoms: _168  and  _169
REMARK   56  A    between atoms: _172  and  _174
REMARK   57  A    between atoms: _174  and  _175
REMARK   58  A    between atoms: _174  and  _177
REMARK   59  A    between atoms: _177  and  _178
REMARK   60  A    between atoms: _181  and  _183
REMARK   61  A    between atoms: _183  and  _184
REMARK   62  A    between atoms: _183  and  _186
REMARK   63  A    between atoms: _186  and  _187
REMARK   64  A    between atoms: _188  and  ZN_403
REMARK   65  A    between atoms: _192  and  _194
REMARK   66  A    between atoms: _194  and  _195
REMARK   67  A    between atoms: _194  and  _197
REMARK   68  A    between atoms: _197  and  _198
REMARK   69  A    between atoms: _201  and  _203
REMARK   70  A    between atoms: _203  and  _204
REMARK   71  A    between atoms: _203  and  _206
REMARK   72  A    between atoms: _209  and  _211
REMARK   73  A    between atoms: _211  and  _212
REMARK   74  A    between atoms: _211  and  _214
REMARK   75  A    between atoms: _214  and  _215
REMARK   76  A    between atoms: _220  and  _222
REMARK   77  A    between atoms: _222  and  _223
REMARK   78  A    between atoms: _222  and  _225
REMARK   79  A    between atoms: _225  and  _226
REMARK   80  A    between atoms: _232  and  _234
REMARK   81  A    between atoms: _234  and  _235
REMARK   82  A    between atoms: _234  and  _237
REMARK   83  A    between atoms: _240  and  _242
REMARK   84  A    between atoms: _242  and  _243
REMARK   85  A    between atoms: _242  and  _245
REMARK   86  A    between atoms: _245  and  _246
REMARK   87  A    between atoms: _249  and  _251
REMARK   88  A    between atoms: _251  and  _252
REMARK   89  A    between atoms: _255  and  _257
REMARK   90  A    between atoms: _257  and  _258
REMARK   91  A    between atoms: _257  and  _260
REMARK   92  A    between atoms: _263  and  _265
REMARK   93  A    between atoms: _265  and  _266
REMARK   94  A    between atoms: _265  and  _268
REMARK   95  A    between atoms: _268  and  _269
REMARK   96  A    between atoms: _272  and  _274
REMARK   97  A    between atoms: _274  and  _275
REMARK   98  A    between atoms: _277  and  _279
REMARK   99  A    between atoms: _279  and  _280
REMARK  100  A    between atoms: _279  and  _282
REMARK  101  A    between atoms: _282  and  _283
REMARK  102  A    between atoms: _285  and  _287
REMARK  103  A    between atoms: _287  and  _288
REMARK  104  A    between atoms: _287  and  _290
REMARK  105  A    between atoms: _290  and  _291
REMARK  106  A    between atoms: _294  and  _296
REMARK  107  A    between atoms: _296  and  _297
REMARK  108  A    between atoms: _296  and  _299
REMARK  109  A    between atoms: _299  and  _300
REMARK  110  A    between atoms: _303  and  _305
REMARK  111  A    between atoms: _305  and  _306
REMARK  112  A    between atoms: _305  and  _308
REMARK  113  A    between atoms: _308  and  _309
REMARK  114  A    between atoms: _313  and  _314
REMARK  115  A    between atoms: _320  and  _321
REMARK  116  A    between atoms: _326  and  _328
REMARK  117  A    between atoms: _328  and  _329
REMARK  118  A    between atoms: _328  and  _331
REMARK  119  A    between atoms: _331  and  _332
REMARK  120  A    between atoms: _335  and  _337
REMARK  121  A    between atoms: _337  and  _338
REMARK  122  A    between atoms: _337  and  _340
REMARK  123  A    between atoms: _340  and  _341
REMARK  124  A    between atoms: _344  and  _346
REMARK  125  A    between atoms: _346  and  _347
REMARK  126  A    between atoms: _346  and  _349
REMARK  127  A    between atoms: _351  and  _353
REMARK  128  A    between atoms: _353  and  _354
REMARK  129  A    between atoms: _353  and  _356
REMARK  130  A    between atoms: _359  and  _361
REMARK  131  A    between atoms: _361  and  _362
REMARK  132  A    between atoms: _361  and  _364
REMARK  133  A    between atoms: _364  and  _365
REMARK  134  A    between atoms: _375  and  _377
REMARK  135  A    between atoms: _377  and  _378
REMARK  136  A    between atoms: _377  and  _380
REMARK  137  A    between atoms: _380  and  _381
REMARK  138  A    between atoms: _386  and  _388
REMARK  139  A    between atoms: _388  and  _389
REMARK  140  A    between atoms: _388  and  _391
REMARK  141  A    between atoms: _391  and  _392
REMARK  142  A    between atoms: _392  and  _393
REMARK  143  A    between atoms: _393  and  _394
REMARK                            x       y       z     vdW  Elec       q    Type
REMARK                         _______ _______ _______ _____ _____    ______ ____
ROOT
ATOM      1  CA  VAL A   1      17.401  13.224  19.934  0.00  0.00    +0.133 C 
ENDROOT
BRANCH   1   2
ATOM      2  CB  VAL A   1      18.061  12.511  18.712  0.00  0.00    +0.023 C 
ATOM      3  CG2 VAL A   1      18.940  13.452  17.909  0.00  0.00    +0.002 C 
ATOM      4  CG1 VAL A   1      17.018  11.839  17.847  0.00  0.00    +0.002 C 
ENDBRANCH   1   2
BRANCH   1   5
ATOM      5  N   VAL A   1      16.481  14.314  19.563  0.00  0.00    -0.239 NA
ATOM      6  H   VAL A   1      16.471  14.682  18.590  0.00  0.00    +0.142 HD
ENDBRANCH   1   5
BRANCH   1   7
ATOM      7  C   VAL A   1      18.485  13.665  20.922  0.00  0.00    +0.224 C 
ATOM      8  O   VAL A   1      19.196  12.818  21.480  0.00  0.00    -0.287 OA
ENDBRANCH   1   7
TORSDOF 3
REMARK  Name = ../refined-set-2016/2wej/2wej_pocket.pdb
REMARK  143 active torsions:
REMARK  status: ('A' for Active; 'I' for Inactive)
REMARK    1  A    between atoms: _1  and  _3
REMARK    2  A    between atoms: _3  and  _4
REMARK    3  A    between atoms: _3  and  _6
REMARK    4  A    between atoms: _6  and  _7
REMARK    5  A    between atoms: _17  and  _19
REMARK    6  A    between atoms: _19  and  _20
REMARK    7  A    between atoms: _19  and  _22
REMARK    8  A    between atoms: _22  and  _23
REMARK    9  A    between atoms: _28  and  _29
REMARK   10  A    between atoms: _31  and  _33
REMARK   11  A    between atoms: _33  and  _34
REMARK   12  A    between atoms: _33  and  _36
REMARK   13  A    between atoms: _36  and  _37
REMARK   14  A    between atoms: _40  and  _41
REMARK   15  A    between atoms: _46  and  _48
REMARK   16  A    between atoms: _48  and  _49
REMARK   17  A    between atoms: _48  and  _51
REMARK   18  A    between atoms: _51  and  _52
REMARK   19  A    between atoms: _57  and  _59
REMARK   20  A    between atoms: _59  and  _60
REMARK   21  A    between atoms: _63  and  _65
REMARK   22  A    between atoms: _65  and  _66
REMARK   23  A    between atoms: _65  and  _68
REMARK   24  A    between atoms: _68  and  _69
REMARK   25  A    between atoms: _74  and  _76
REMARK   26  A    between atoms: _76  and  _77
REMARK   27  A    between atoms: _76  and  _79
REMARK   28  A    between atoms: _79  and  _80
REMARK   29  A    between atoms: _83  and  _85
REMARK   30  A    between atoms: _85  and  _86
REMARK   31  A    between atoms: _85  and  _88
REMARK   32  A    between atoms: _88  and  _89
REMARK   33  A    between atoms: _89  and  _90
REMARK   34  A    between atoms: _95  and  _97
REMARK   35  A    between atoms: _97  and  _98
REMARK   36  A    between atoms: _97  and  _100
REMARK   37  A    between atoms: _100  and  _101
REMARK   38  A    between atoms: _107  and  _109
REMARK   39  A    between atoms: _120  and  _123
REMARK   40  A    between atoms: _123  and  _124
REMARK   41  A    between atoms: _132  and  _133
REMARK   42  A    between atoms: _141  and  _143
REMARK   43  A    between atoms: _143  and  _144
REMARK   44  A    between atoms: _143  and  _146
REMARK   45  A    between atoms: _146  and  _147
REMARK   46  A    between atoms: _147  and  _148
REMARK   47  A    between atoms: _151  and  _153
REMARK   48  A    between atoms: _153  and  _154
REMARK   49  A    between atoms: _153  and  _156
REMARK   50  A    between atoms: _156  and  _157
REMARK   51  A    between atoms: _162  and  _164
REMARK   52  A    between atoms: _164  and  _165
REMARK   53  A    between atoms: _164  and  _167
REMARK   54  A    between atoms: _167  and  _168
REMARK   55  A    between atoms: _168  and  _169
REMARK   56  A    between atoms: _172  and  _174
REMARK   57  A    between atoms: _174  and  _175
REMARK   58  A    between atoms: _174  and  _177
REMARK   59  A    between atoms: _177  and  _178
REMARK   60  A    between atoms: _181  and  _183
REMARK   61  A    between atoms: _183  and  _184
REMARK   62  A    between atoms: _183  and  _186
REMARK   63  A    between atoms: _186  and  _187
REMARK   64  A    between atoms: _188  and  ZN_403
REMARK   65  A    between atoms: _192  and  _194
REMARK   66  A    between atoms: _194  and  _195
REMARK   67  A    between atoms: _194  and  _197
REMARK   68  A    between atoms: _197  and  _198
REMARK   69  A    between atoms: _201  and  _203
REMARK   70  A    between atoms: _203  and  _204
REMARK   71  A    between atoms: _203  and  _206
REMARK   72  A    between atoms: _209  and  _211
REMARK   73  A    between atoms: _211  and  _212
REMARK   74  A    between atoms: _211  and  _214
REMARK   75  A    between atoms: _214  and  _215
REMARK   76  A    between atoms: _220  and  _222
REMARK   77  A    between atoms: _222  and  _223
REMARK   78  A    between atoms: _222  and  _225
REMARK   79  A    between atoms: _225  and  _226
REMARK   80  A    between atoms: _232  and  _234
REMARK   81  A    between atoms: _234  and  _235
REMARK   82  A    between atoms: _234  and  _237
REMARK   83  A    between atoms: _240  and  _242
REMARK   84  A    between atoms: _242  and  _243
REMARK   85  A    between atoms: _242  and  _245
REMARK   86  A    between atoms: _245  and  _246
REMARK   87  A    between atoms: _249  and  _251
REMARK   88  A    between atoms: _251  and  _252
REMARK   89  A    between atoms: _255  and  _257
REMARK   90  A    between atoms: _257  and  _258
REMARK   91  A    between atoms: _257  and  _260
REMARK   92  A    between atoms: _263  and  _265
REMARK   93  A    between atoms: _265  and  _266
REMARK   94  A    between atoms: _265  and  _268
REMARK   95  A    between atoms: _268  and  _269
REMARK   96  A    between atoms: _272  and  _274
REMARK   97  A    between atoms: _274  and  _275
REMARK   98  A    between atoms: _277  and  _279
REMARK   99  A    between atoms: _279  and  _280
REMARK  100  A    between atoms: _279  and  _282
REMARK  101  A    between atoms: _282  and  _283
REMARK  102  A    between atoms: _285  and  _287
REMARK  103  A    between atoms: _287  and  _288
REMARK  104  A    between atoms: _287  and  _290
REMARK  105  A    between atoms: _290  and  _291
REMARK  106  A    between atoms: _294  and  _296
REMARK  107  A    between atoms: _296  and  _297
REMARK  108  A    between atoms: _296  and  _299
REMARK  109  A    between atoms: _299  and  _300
REMARK  110  A    between atoms: _303  and  _305
REMARK  111  A    between atoms: _305  and  _306
REMARK  112  A    between atoms: _305  and  _308
REMARK  113  A    between atoms: _308  and  _309
REMARK  114  A    between atoms: _313  and  _314
REMARK  115  A    between atoms: _320  and  _321
REMARK  116  A    between atoms: _326  and  _328
REMARK  117  A    between atoms: _328  and  _329
REMARK  118  A    between atoms: _328  and  _331
REMARK  119  A    between atoms: _331  and  _332
REMARK  120  A    between atoms: _335  and  _337
REMARK  121  A    between atoms: _337  and  _338
REMARK  122  A    between atoms: _337  and  _340
REMARK  123  A    between atoms: _340  and  _341
REMARK  124  A    between atoms: _344  and  _346
REMARK  125  A    between atoms: _346  and  _347
REMARK  126  A    between atoms: _346  and  _349
REMARK  127  A    between atoms: _351  and  _353
REMARK  128  A    between atoms: _353  and  _354
REMARK  129  A    between atoms: _353  and  _356
REMARK  130  A    between atoms: _359  and  _361
REMARK  131  A    between atoms: _361  and  _362
REMARK  132  A    between atoms: _361  and  _364
REMARK  133  A    between atoms: _364  and  _365
REMARK  134  A    between atoms: _375  and  _377
REMARK  135  A    between atoms: _377  and  _378
REMARK  136  A    between atoms: _377  and  _380
REMARK  137  A    between atoms: _380  and  _381
REMARK  138  A    between atoms: _386  and  _388
REMARK  139  A    between atoms: _388  and  _389
REMARK  140  A    between atoms: _388  and  _391
REMARK  141  A    between atoms: _391  and  _392
REMARK  142  A    between atoms: _392  and  _393
REMARK  143  A    between atoms: _393  and  _394
REMARK                            x       y       z     vdW  Elec       q    Type
REMARK                         _______ _______ _______ _____ _____    ______ ____
ROOT
ATOM      1  C   ALA A   2       8.875   6.704  21.010  0.00  0.00    +0.241 C 
ATOM      2  N   VAL A   3       9.352   5.483  21.277  0.00  0.00    -0.297 N 
ATOM      3  H   VAL A   3       9.751   5.283  22.216  0.00  0.00    +0.150 HD
ATOM      4  O   ALA A   2       8.479   7.051  19.895  0.00  0.00    -0.273 OA
ENDROOT
BRANCH   1   5
ATOM      5  CA  ALA A   2       8.907   7.723  22.140  0.00  0.00    +0.149 C 
ATOM      6  CB  ALA A   2       7.509   8.130  22.517  0.00  0.00    +0.031 C 
BRANCH   5   9
ATOM      7  C   LEU A   1      10.715   9.375  22.291  0.00  0.00    +0.238 C 
ATOM      8  O   LEU A   1      11.016   9.081  23.449  0.00  0.00    -0.274 OA
ATOM      9  N   ALA A   2       9.672   8.866  21.626  0.00  0.00    -0.297 N 
ATOM     10  H   ALA A   2       9.395   9.292  20.719  0.00  0.00    +0.150 HD
BRANCH   7  11
ATOM     11  CA  LEU A   1      11.572  10.315  21.493  0.00  0.00    +0.145 C 
BRANCH  11  12
ATOM     12  N   LEU A   1      12.268  11.257  22.371  0.00  0.00    -0.238 NA
ATOM     13  H   LEU A   1      12.877  10.880  23.125  0.00  0.00    +0.142 HD
ENDBRANCH  11  12
BRANCH  11  14
ATOM     14  CB  LEU A   1      12.556   9.465  20.665  0.00  0.00    +0.026 C 
BRANCH  14  15
ATOM     15  CG  LEU A   1      13.534  10.081  19.675  0.00  0.00    +0.002 C 
ATOM     16  CD2 LEU A   1      14.221   8.990  18.808  0.00  0.00    +0.000 C 
ATOM     17  CD1 LEU A   1      12.982  11.195  18.774  0.00  0.00    +0.000 C 
ENDBRANCH  14  15
ENDBRANCH  11  14
ENDBRANCH   7  11
ENDBRANCH   5   9
ENDBRANCH   1   5
BRANCH   2  18
ATOM     18  CA  VAL A   3       9.321   4.422  20.264  0.00  0.00    +0.149 C 
BRANCH  18  19
ATOM     19  C   VAL A   3       8.363   3.345  20.761  0.00  0.00    +0.241 C 
ATOM     20  O   VAL A   3       8.492   2.828  21.879  0.00  0.00    -0.273 OA
ATOM     21  N   LEU A   4       7.356   3.072  19.929  0.00  0.00    -0.298 N 
ATOM     22  H   LEU A   4       7.263   3.637  19.061  0.00  0.00    +0.150 HD
BRANCH  21  23
ATOM     23  CA  LEU A   4       6.378   2.015  20.183  0.00  0.00    +0.137 C 
BRANCH  23  24
ATOM     24  C   LEU A   4       6.877   0.738  19.488  0.00  0.00    +0.227 C 
ATOM     25  O   LEU A   4       7.019   0.714  18.259  0.00  0.00    -0.286 OA
ENDBRANCH  23  24
BRANCH  23  26
ATOM     26  CB  LEU A   4       5.018   2.460  19.622  0.00  0.00    +0.028 C 
BRANCH  26  27
ATOM     27  CG  LEU A   4       3.830   1.525  19.833  0.00  0.00    +0.002 C 
ATOM     28  CD2 LEU A   4       3.567   1.271  21.306  0.00  0.00    +0.000 C 
ATOM     29  CD1 LEU A   4       2.582   2.089  19.126  0.00  0.00    +0.000 C 
ENDBRANCH  26  27
ENDBRANCH  23  26
ENDBRANCH  21  23
ENDBRANCH  18  19
BRANCH  18  30
ATOM     30  CB  VAL A   3      10.730   3.835  19.881  0.00  0.00    +0.027 C 
ATOM     31  CG2 VAL A   3      11.663   4.939  19.455  0.00  0.00    +0.002 C 
ATOM     32  CG1 VAL A   3      10.577   2.816  18.719  0.00  0.00    +0.002 C 
ENDBRANCH  18  30
ENDBRANCH   2  18
TORSDOF 13
REMARK  Name = ../refined-set-2016/2wej/2wej_pocket.pdb
REMARK  143 active torsions:
REMARK  status: ('A' for Active; 'I' for Inactive)
REMARK    1  A    between atoms: _1  and  _3
REMARK    2  A    between atoms: _3  and  _4
REMARK    3  A    between atoms: _3  and  _6
REMARK    4  A    between atoms: _6  and  _7
REMARK    5  A    between atoms: _17  and  _19
REMARK    6  A    between atoms: _19  and  _20
REMARK    7  A    between atoms: _19  and  _22
REMARK    8  A    between atoms: _22  and  _23
REMARK    9  A    between atoms: _28  and  _29
REMARK   10  A    between atoms: _31  and  _33
REMARK   11  A    between atoms: _33  and  _34
REMARK   12  A    between atoms: _33  and  _36
REMARK   13  A    between atoms: _36  and  _37
REMARK   14  A    between atoms: _40  and  _41
REMARK   15  A    between atoms: _46  and  _48
REMARK   16  A    between atoms: _48  and  _49
REMARK   17  A    between atoms: _48  and  _51
REMARK   18  A    between atoms: _51  and  _52
REMARK   19  A    between atoms: _57  and  _59
REMARK   20  A    between atoms: _59  and  _60
REMARK   21  A    between atoms: _63  and  _65
REMARK   22  A    between atoms: _65  and  _66
REMARK   23  A    between atoms: _65  and  _68
REMARK   24  A    between atoms: _68  and  _69
REMARK   25  A    between atoms: _74  and  _76
REMARK   26  A    between atoms: _76  and  _77
REMARK   27  A    between atoms: _76  and  _79
REMARK   28  A    between atoms: _79  and  _80
REMARK   29  A    between atoms: _83  and  _85
REMARK   30  A    between atoms: _85  and  _86
REMARK   31  A    between atoms: _85  and  _88
REMARK   32  A    between atoms: _88  and  _89
REMARK   33  A    between atoms: _89  and  _90
REMARK   34  A    between atoms: _95  and  _97
REMARK   35  A    between atoms: _97  and  _98
REMARK   36  A    between atoms: _97  and  _100
REMARK   37  A    between atoms: _100  and  _101
REMARK   38  A    between atoms: _107  and  _109
REMARK   39  A    between atoms: _120  and  _123
REMARK   40  A    between atoms: _123  and  _124
REMARK   41  A    between atoms: _132  and  _133
REMARK   42  A    between atoms: _141  and  _143
REMARK   43  A    between atoms: _143  and  _144
REMARK   44  A    between atoms: _143  and  _146
REMARK   45  A    between atoms: _146  and  _147
REMARK   46  A    between atoms: _147  and  _148
REMARK   47  A    between atoms: _151  and  _153
REMARK   48  A    between atoms: _153  and  _154
REMARK   49  A    between atoms: _153  and  _156
REMARK   50  A    between atoms: _156  and  _157
REMARK   51  A    between atoms: _162  and  _164
REMARK   52  A    between atoms: _164  and  _165
REMARK   53  A    between atoms: _164  and  _167
REMARK   54  A    between atoms: _167  and  _168
REMARK   55  A    between atoms: _168  and  _169
REMARK   56  A    between atoms: _172  and  _174
REMARK   57  A    between atoms: _174  and  _175
REMARK   58  A    between atoms: _174  and  _177
REMARK   59  A    between atoms: _177  and  _178
REMARK   60  A    between atoms: _181  and  _183
REMARK   61  A    between atoms: _183  and  _184
REMARK   62  A    between atoms: _183  and  _186
REMARK   63  A    between atoms: _186  and  _187
REMARK   64  A    between atoms: _188  and  ZN_403
REMARK   65  A    between atoms: _192  and  _194
REMARK   66  A    between atoms: _194  and  _195
REMARK   67  A    between atoms: _194  and  _197
REMARK   68  A    between atoms: _197  and  _198
REMARK   69  A    between atoms: _201  and  _203
REMARK   70  A    between atoms: _203  and  _204
REMARK   71  A    between atoms: _203  and  _206
REMARK   72  A    between atoms: _209  and  _211
REMARK   73  A    between atoms: _211  and  _212
REMARK   74  A    between atoms: _211  and  _214
REMARK   75  A    between atoms: _214  and  _215
REMARK   76  A    between atoms: _220  and  _222
REMARK   77  A    between atoms: _222  and  _223
REMARK   78  A    between atoms: _222  and  _225
REMARK   79  A    between atoms: _225  and  _226
REMARK   80  A    between atoms: _232  and  _234
REMARK   81  A    between atoms: _234  and  _235
REMARK   82  A    between atoms: _234  and  _237
REMARK   83  A    between atoms: _240  and  _242
REMARK   84  A    between atoms: _242  and  _243
REMARK   85  A    between atoms: _242  and  _245
REMARK   86  A    between atoms: _245  and  _246
REMARK   87  A    between atoms: _249  and  _251
REMARK   88  A    between atoms: _251  and  _252
REMARK   89  A    between atoms: _255  and  _257
REMARK   90  A    between atoms: _257  and  _258
REMARK   91  A    between atoms: _257  and  _260
REMARK   92  A    between atoms: _263  and  _265
REMARK   93  A    between atoms: _265  and  _266
REMARK   94  A    between atoms: _265  and  _268
REMARK   95  A    between atoms: _268  and  _269
REMARK   96  A    between atoms: _272  and  _274
REMARK   97  A    between atoms: _274  and  _275
REMARK   98  A    between atoms: _277  and  _279
REMARK   99  A    between atoms: _279  and  _280
REMARK  100  A    between atoms: _279  and  _282
REMARK  101  A    between atoms: _282  and  _283
REMARK  102  A    between atoms: _285  and  _287
REMARK  103  A    between atoms: _287  and  _288
REMARK  104  A    between atoms: _287  and  _290
REMARK  105  A    between atoms: _290  and  _291
REMARK  106  A    between atoms: _294  and  _296
REMARK  107  A    between atoms: _296  and  _297
REMARK  108  A    between atoms: _296  and  _299
REMARK  109  A    between atoms: _299  and  _300
REMARK  110  A    between atoms: _303  and  _305
REMARK  111  A    between atoms: _305  and  _306
REMARK  112  A    between atoms: _305  and  _308
REMARK  113  A    between atoms: _308  and  _309
REMARK  114  A    between atoms: _313  and  _314
REMARK  115  A    between atoms: _320  and  _321
REMARK  116  A    between atoms: _326  and  _328
REMARK  117  A    between atoms: _328  and  _329
REMARK  118  A    between atoms: _328  and  _331
REMARK  119  A    between atoms: _331  and  _332
REMARK  120  A    between atoms: _335  and  _337
REMARK  121  A    between atoms: _337  and  _338
REMARK  122  A    between atoms: _337  and  _340
REMARK  123  A    between atoms: _340  and  _341
REMARK  124  A    between atoms: _344  and  _346
REMARK  125  A    between atoms: _346  and  _347
REMARK  126  A    between atoms: _346  and  _349
REMARK  127  A    between atoms: _351  and  _353
REMARK  128  A    between atoms: _353  and  _354
REMARK  129  A    between atoms: _353  and  _356
REMARK  130  A    between atoms: _359  and  _361
REMARK  131  A    between atoms: _361  and  _362
REMARK  132  A    between atoms: _361  and  _364
REMARK  133  A    between atoms: _364  and  _365
REMARK  134  A    between atoms: _375  and  _377
REMARK  135  A    between atoms: _377  and  _378
REMARK  136  A    between atoms: _377  and  _380
REMARK  137  A    between atoms: _380  and  _381
REMARK  138  A    between atoms: _386  and  _388
REMARK  139  A    between atoms: _388  and  _389
REMARK  140  A    between atoms: _388  and  _391
REMARK  141  A    between atoms: _391  and  _392
REMARK  142  A    between atoms: _392  and  _393
REMARK  143  A    between atoms: _393  and  _394
REMARK                            x       y       z     vdW  Elec       q    Type
REMARK                         _______ _______ _______ _____ _____    ______ ____
ROOT
ATOM      1  CA  THR A   5      21.607   1.718  16.373  0.00  0.00    +0.176 C 
ENDROOT
BRANCH   1   2
ATOM      2  C   THR A   5      22.434   2.981  16.631  0.00  0.00    +0.246 C 
ATOM      3  O   THR A   5      21.942   3.929  17.216  0.00  0.00    -0.273 OA
ATOM      4  N   PRO A   6      23.705   3.001  16.170  0.00  0.00    -0.272 N 
ATOM      5  CA  PRO A   6      24.444   4.276  16.228  0.00  0.00    +0.152 C 
ATOM      6  CB  PRO A   6      25.681   3.975  15.371  0.00  0.00    +0.031 C 
ATOM      7  CG  PRO A   6      25.929   2.523  15.656  0.00  0.00    +0.024 C 
ATOM      8  CD  PRO A   6      24.519   1.917  15.586  0.00  0.00    +0.094 C 
BRANCH   5   9
ATOM      9  C   PRO A   6      23.582   5.417  15.661  0.00  0.00    +0.244 C 
ATOM     10  N   PRO A   7      23.622   6.602  16.284  0.00  0.00    -0.272 N 
ATOM     11  CA  PRO A   7      24.519   7.011  17.386  0.00  0.00    +0.152 C 
ATOM     12  CB  PRO A   7      24.548   8.538  17.245  0.00  0.00    +0.031 C 
ATOM     13  CG  PRO A   7      23.167   8.860  16.755  0.00  0.00    +0.024 C 
ATOM     14  CD  PRO A   7      22.813   7.742  15.793  0.00  0.00    +0.094 C 
ATOM     15  O   PRO A   6      22.843   5.203  14.679  0.00  0.00    -0.273 OA
BRANCH  11  16
ATOM     16  C   PRO A   7      24.192   6.602  18.847  0.00  0.00    +0.241 C 
ATOM     17  O   PRO A   7      24.852   7.075  19.784  0.00  0.00    -0.273 OA
ATOM     18  N   LEU A   8      23.203   5.724  19.027  0.00  0.00    -0.297 N 
ATOM     19  H   LEU A   8      22.612   5.465  18.211  0.00  0.00    +0.150 HD
BRANCH  18  20
ATOM     20  CA  LEU A   8      22.911   5.100  20.346  0.00  0.00    +0.149 C 
BRANCH  20  21
ATOM     21  C   LEU A   8      22.539   6.122  21.439  0.00  0.00    +0.241 C 
ATOM     22  O   LEU A   8      22.668   5.867  22.642  0.00  0.00    -0.273 OA
ATOM     23  N   LEU A   9      21.983   7.244  20.994  0.00  0.00    -0.298 N 
ATOM     24  H   LEU A   9      21.784   7.346  19.978  0.00  0.00    +0.150 HD
BRANCH  23  25
ATOM     25  CA  LEU A   9      21.644   8.342  21.906  0.00  0.00    +0.137 C 
BRANCH  25  26
ATOM     26  C   LEU A   9      20.592   7.955  22.945  0.00  0.00    +0.227 C 
ATOM     27  O   LEU A   9      19.597   7.271  22.636  0.00  0.00    -0.286 OA
ENDBRANCH  25  26
BRANCH  25  28
ATOM     28  CB  LEU A   9      21.180   9.583  21.116  0.00  0.00    +0.028 C 
BRANCH  28  29
ATOM     29  CG  LEU A   9      22.263  10.186  20.194  0.00  0.00    +0.002 C 
ATOM     30  CD2 LEU A   9      23.389  10.847  20.977  0.00  0.00    +0.000 C 
ATOM     31  CD1 LEU A   9      21.668  11.203  19.208  0.00  0.00    +0.000 C 
ENDBRANCH  28  29
ENDBRANCH  25  28
ENDBRANCH  23  25
ENDBRANCH  20  21
BRANCH  20  32
ATOM     32  CB  LEU A   8      24.082   4.201  20.816  0.00  0.00    +0.029 C 
BRANCH  32  33
ATOM     33  CG  LEU A   8      24.378   3.034  19.861  0.00  0.00    +0.002 C 
ATOM     34  CD2 LEU A   8      25.725   2.433  20.249  0.00  0.00    +0.000 C 
ATOM     35  CD1 LEU A   8      23.300   1.916  19.863  0.00  0.00    +0.000 C 
ENDBRANCH  32  33
ENDBRANCH  20  32
ENDBRANCH  18  20
ENDBRANCH  11  16
ENDBRANCH   5   9
ENDBRANCH   1   2
BRANCH   1  38
ATOM     36  C   THR A   4      20.332   0.580  18.153  0.00  0.00    +0.243 C 
ATOM     37  O   THR A   4      20.933  -0.478  17.984  0.00  0.00    -0.273 OA
ATOM     38  N   THR A   5      20.509   1.645  17.359  0.00  0.00    -0.295 N 
ATOM     39  H   THR A   5      19.852   2.447  17.440  0.00  0.00    +0.150 HD
BRANCH  36  40
ATOM     40  CA  THR A   4      19.288   0.691  19.259  0.00  0.00    +0.176 C 
BRANCH  40  43
ATOM     41  C   LEU A   3      19.084   2.964  20.072  0.00  0.00    +0.241 C 
ATOM     42  O   LEU A   3      20.091   2.812  20.816  0.00  0.00    -0.273 OA
ATOM     43  N   THR A   4      18.625   2.012  19.251  0.00  0.00    -0.295 N 
ATOM     44  H   THR A   4      17.819   2.198  18.621  0.00  0.00    +0.150 HD
BRANCH  41  45
ATOM     45  CA  LEU A   3      18.350   4.283  20.035  0.00  0.00    +0.149 C 
BRANCH  45  48
ATOM     46  C   SER A   2      17.837   4.174  22.419  0.00  0.00    +0.243 C 
ATOM     47  O   SER A   2      17.050   3.228  22.265  0.00  0.00    -0.273 OA
ATOM     48  N   LEU A   3      18.386   4.848  21.400  0.00  0.00    -0.297 N 
ATOM     49  H   LEU A   3      18.838   5.769  21.569  0.00  0.00    +0.150 HD
BRANCH  46  50
ATOM     50  CA  SER A   2      18.233   4.606  23.821  0.00  0.00    +0.178 C 
BRANCH  50  53
ATOM     51  C   GLY A   1      17.030   4.607  25.957  0.00  0.00    +0.240 C 
ATOM     52  O   GLY A   1      17.104   5.833  26.105  0.00  0.00    -0.274 OA
ATOM     53  N   SER A   2      17.436   3.966  24.865  0.00  0.00    -0.295 N 
ATOM     54  H   SER A   2      17.175   2.966  24.749  0.00  0.00    +0.150 HD
BRANCH  51  55
ATOM     55  CA  GLY A   1      16.405   3.740  27.030  0.00  0.00    +0.169 C 
BRANCH  55  56
ATOM     56  N   GLY A   1      15.299   4.379  27.773  0.00  0.00    -0.236 NA
ATOM     57  H   GLY A   1      14.690   5.073  27.294  0.00  0.00    +0.142 HD
ENDBRANCH  55  56
ENDBRANCH  51  55
ENDBRANCH  50  53
BRANCH  50  58
ATOM     58  CB  SER A   2      19.721   4.222  23.999  0.00  0.00    +0.166 C 
BRANCH  58  59
ATOM     59  OG  SER A   2      20.001   2.883  23.540  0.00  0.00    -0.380 OA
ATOM     60  H   SER A   2      19.779   2.812  22.578  0.00  0.00    +0.211 HD
ENDBRANCH  58  59
ENDBRANCH  50  58
ENDBRANCH  46  50
ENDBRANCH  45  48
BRANCH  45  61
ATOM     61  CB  LEU A   3      19.034   5.204  19.014  0.00  0.00    +0.029 C 
BRANCH  61  62
ATOM     62  CG  LEU A   3      18.575   6.672  18.986  0.00  0.00    +0.002 C 
ATOM     63  CD2 LEU A   3      17.090   6.793  18.629  0.00  0.00    +0.000 C 
ATOM     64  CD1 LEU A   3      19.410   7.492  18.018  0.00  0.00    +0.000 C 
ENDBRANCH  61  62
ENDBRANCH  45  61
ENDBRANCH  41  45
ENDBRANCH  40  43
BRANCH  40  65
ATOM     65  CB  THR A   4      18.286  -0.451  19.095  0.00  0.00    +0.137 C 
ATOM     66  CG2 THR A   4      17.183  -0.417  20.199  0.00  0.00    +0.034 C 
BRANCH  65  67
ATOM     67  OG1 THR A   4      17.677  -0.365  17.785  0.00  0.00    -0.382 OA
ATOM     68  HG1 THR A   4      17.027  -1.104  17.675  0.00  0.00    +0.210 HD
ENDBRANCH  65  67
ENDBRANCH  40  65
ENDBRANCH  36  40
ENDBRANCH   1  38
BRANCH   1  69
ATOM     69  CB  THR A   5      21.104   1.813  14.904  0.00  0.00    +0.137 C 
ATOM     70  CG2 THR A   5      20.060   0.763  14.591  0.00  0.00    +0.034 C 
BRANCH  69  71
ATOM     71  OG1 THR A   5      20.553   3.119  14.663  0.00  0.00    -0.382 OA
ATOM     72  HG1 THR A   5      20.235   3.174  13.727  0.00  0.00    +0.210 HD
ENDBRANCH  69  71
ENDBRANCH   1  69
TORSDOF 28
REMARK  Name = ../refined-set-2016/2wej/2wej_pocket.pdb
REMARK  143 active torsions:
REMARK  status: ('A' for Active; 'I' for Inactive)
REMARK    1  A    between atoms: _1  and  _3
REMARK    2  A    between atoms: _3  and  _4
REMARK    3  A    between atoms: _3  and  _6
REMARK    4  A    between atoms: _6  and  _7
REMARK    5  A    between atoms: _17  and  _19
REMARK    6  A    between atoms: _19  and  _20
REMARK    7  A    between atoms: _19  and  _22
REMARK    8  A    between atoms: _22  and  _23
REMARK    9  A    between atoms: _28  and  _29
REMARK   10  A    between atoms: _31  and  _33
REMARK   11  A    between atoms: _33  and  _34
REMARK   12  A    between atoms: _33  and  _36
REMARK   13  A    between atoms: _36  and  _37
REMARK   14  A    between atoms: _40  and  _41
REMARK   15  A    between atoms: _46  and  _48
REMARK   16  A    between atoms: _48  and  _49
REMARK   17  A    between atoms: _48  and  _51
REMARK   18  A    between atoms: _51  and  _52
REMARK   19  A    between atoms: _57  and  _59
REMARK   20  A    between atoms: _59  and  _60
REMARK   21  A    between atoms: _63  and  _65
REMARK   22  A    between atoms: _65  and  _66
REMARK   23  A    between atoms: _65  and  _68
REMARK   24  A    between atoms: _68  and  _69
REMARK   25  A    between atoms: _74  and  _76
REMARK   26  A    between atoms: _76  and  _77
REMARK   27  A    between atoms: _76  and  _79
REMARK   28  A    between atoms: _79  and  _80
REMARK   29  A    between atoms: _83  and  _85
REMARK   30  A    between atoms: _85  and  _86
REMARK   31  A    between atoms: _85  and  _88
REMARK   32  A    between atoms: _88  and  _89
REMARK   33  A    between atoms: _89  and  _90
REMARK   34  A    between atoms: _95  and  _97
REMARK   35  A    between atoms: _97  and  _98
REMARK   36  A    between atoms: _97  and  _100
REMARK   37  A    between atoms: _100  and  _101
REMARK   38  A    between atoms: _107  and  _109
REMARK   39  A    between atoms: _120  and  _123
REMARK   40  A    between atoms: _123  and  _124
REMARK   41  A    between atoms: _132  and  _133
REMARK   42  A    between atoms: _141  and  _143
REMARK   43  A    between atoms: _143  and  _144
REMARK   44  A    between atoms: _143  and  _146
REMARK   45  A    between atoms: _146  and  _147
REMARK   46  A    between atoms: _147  and  _148
REMARK   47  A    between atoms: _151  and  _153
REMARK   48  A    between atoms: _153  and  _154
REMARK   49  A    between atoms: _153  and  _156
REMARK   50  A    between atoms: _156  and  _157
REMARK   51  A    between atoms: _162  and  _164
REMARK   52  A    between atoms: _164  and  _165
REMARK   53  A    between atoms: _164  and  _167
REMARK   54  A    between atoms: _167  and  _168
REMARK   55  A    between atoms: _168  and  _169
REMARK   56  A    between atoms: _172  and  _174
REMARK   57  A    between atoms: _174  and  _175
REMARK   58  A    between atoms: _174  and  _177
REMARK   59  A    between atoms: _177  and  _178
REMARK   60  A    between atoms: _181  and  _183
REMARK   61  A    between atoms: _183  and  _184
REMARK   62  A    between atoms: _183  and  _186
REMARK   63  A    between atoms: _186  and  _187
REMARK   64  A    between atoms: _188  and  ZN_403
REMARK   65  A    between atoms: _192  and  _194
REMARK   66  A    between atoms: _194  and  _195
REMARK   67  A    between atoms: _194  and  _197
REMARK   68  A    between atoms: _197  and  _198
REMARK   69  A    between atoms: _201  and  _203
REMARK   70  A    between atoms: _203  and  _204
REMARK   71  A    between atoms: _203  and  _206
REMARK   72  A    between atoms: _209  and  _211
REMARK   73  A    between atoms: _211  and  _212
REMARK   74  A    between atoms: _211  and  _214
REMARK   75  A    between atoms: _214  and  _215
REMARK   76  A    between atoms: _220  and  _222
REMARK   77  A    between atoms: _222  and  _223
REMARK   78  A    between atoms: _222  and  _225
REMARK   79  A    between atoms: _225  and  _226
REMARK   80  A    between atoms: _232  and  _234
REMARK   81  A    between atoms: _234  and  _235
REMARK   82  A    between atoms: _234  and  _237
REMARK   83  A    between atoms: _240  and  _242
REMARK   84  A    between atoms: _242  and  _243
REMARK   85  A    between atoms: _242  and  _245
REMARK   86  A    between atoms: _245  and  _246
REMARK   87  A    between atoms: _249  and  _251
REMARK   88  A    between atoms: _251  and  _252
REMARK   89  A    between atoms: _255  and  _257
REMARK   90  A    between atoms: _257  and  _258
REMARK   91  A    between atoms: _257  and  _260
REMARK   92  A    between atoms: _263  and  _265
REMARK   93  A    between atoms: _265  and  _266
REMARK   94  A    between atoms: _265  and  _268
REMARK   95  A    between atoms: _268  and  _269
REMARK   96  A    between atoms: _272  and  _274
REMARK   97  A    between atoms: _274  and  _275
REMARK   98  A    between atoms: _277  and  _279
REMARK   99  A    between atoms: _279  and  _280
REMARK  100  A    between atoms: _279  and  _282
REMARK  101  A    between atoms: _282  and  _283
REMARK  102  A    between atoms: _285  and  _287
REMARK  103  A    between atoms: _287  and  _288
REMARK  104  A    between atoms: _287  and  _290
REMARK  105  A    between atoms: _290  and  _291
REMARK  106  A    between atoms: _294  and  _296
REMARK  107  A    between atoms: _296  and  _297
REMARK  108  A    between atoms: _296  and  _299
REMARK  109  A    between atoms: _299  and  _300
REMARK  110  A    between atoms: _303  and  _305
REMARK  111  A    between atoms: _305  and  _306
REMARK  112  A    between atoms: _305  and  _308
REMARK  113  A    between atoms: _308  and  _309
REMARK  114  A    between atoms: _313  and  _314
REMARK  115  A    between atoms: _320  and  _321
REMARK  116  A    between atoms: _326  and  _328
REMARK  117  A    between atoms: _328  and  _329
REMARK  118  A    between atoms: _328  and  _331
REMARK  119  A    between atoms: _331  and  _332
REMARK  120  A    between atoms: _335  and  _337
REMARK  121  A    between atoms: _337  and  _338
REMARK  122  A    between atoms: _337  and  _340
REMARK  123  A    between atoms: _340  and  _341
REMARK  124  A    between atoms: _344  and  _346
REMARK  125  A    between atoms: _346  and  _347
REMARK  126  A    between atoms: _346  and  _349
REMARK  127  A    between atoms: _351  and  _353
REMARK  128  A    between atoms: _353  and  _354
REMARK  129  A    between atoms: _353  and  _356
REMARK  130  A    between atoms: _359  and  _361
REMARK  131  A    between atoms: _361  and  _362
REMARK  132  A    between atoms: _361  and  _364
REMARK  133  A    between atoms: _364  and  _365
REMARK  134  A    between atoms: _375  and  _377
REMARK  135  A    between atoms: _377  and  _378
REMARK  136  A    between atoms: _377  and  _380
REMARK  137  A    between atoms: _380  and  _381
REMARK  138  A    between atoms: _386  and  _388
REMARK  139  A    between atoms: _388  and  _389
REMARK  140  A    between atoms: _388  and  _391
REMARK  141  A    between atoms: _391  and  _392
REMARK  142  A    between atoms: _392  and  _393
REMARK  143  A    between atoms: _393  and  _394
REMARK                            x       y       z     vdW  Elec       q    Type
REMARK                         _______ _______ _______ _____ _____    ______ ____
ROOT
ATOM      1  C   CYS A   1      15.357   9.288  24.185  0.00  0.00    +0.239 C 
ATOM      2  N   VAL A   2      15.217   7.996  24.502  0.00  0.00    -0.298 N 
ATOM      3  H   VAL A   2      15.991   7.498  24.986  0.00  0.00    +0.150 HD
ATOM      4  O   CYS A   1      14.409   9.999  23.874  0.00  0.00    -0.274 OA
ENDROOT
BRANCH   1   5
ATOM      5  CA  CYS A   1      16.745   9.918  24.286  0.00  0.00    +0.156 C 
BRANCH   5   6
ATOM      6  N   CYS A   1      17.804   8.919  24.471  0.00  0.00    -0.237 NA
ATOM      7  H   CYS A   1      17.841   8.106  23.824  0.00  0.00    +0.142 HD
ENDBRANCH   5   6
BRANCH   5   8
ATOM      8  CB  CYS A   1      17.041  10.744  23.031  0.00  0.00    +0.095 C 
ATOM      9  SG  CYS A   1      17.068   9.740  21.529  0.00  0.00    -0.080 S 
ENDBRANCH   5   8
ENDBRANCH   1   5
BRANCH   2  10
ATOM     10  CA  VAL A   2      13.972   7.268  24.172  0.00  0.00    +0.137 C 
BRANCH  10  11
ATOM     11  CB  VAL A   2      14.258   6.027  23.285  0.00  0.00    +0.026 C 
ATOM     12  CG2 VAL A   2      12.960   5.338  22.914  0.00  0.00    +0.002 C 
ATOM     13  CG1 VAL A   2      14.987   6.428  21.996  0.00  0.00    +0.002 C 
ENDBRANCH  10  11
BRANCH  10  14
ATOM     14  C   VAL A   2      13.190   6.801  25.375  0.00  0.00    +0.227 C 
ATOM     15  O   VAL A   2      13.751   6.178  26.272  0.00  0.00    -0.286 OA
ENDBRANCH  10  14
ENDBRANCH   2  10
TORSDOF 6
REMARK  Name = ../refined-set-2016/2wej/2wej_pocket.pdb
REMARK  143 active torsions:
REMARK  status: ('A' for Active; 'I' for Inactive)
REMARK    1  A    between atoms: _1  and  _3
REMARK    2  A    between atoms: _3  and  _4
REMARK    3  A    between atoms: _3  and  _6
REMARK    4  A    between atoms: _6  and  _7
REMARK    5  A    between atoms: _17  and  _19
REMARK    6  A    between atoms: _19  and  _20
REMARK    7  A    between atoms: _19  and  _22
REMARK    8  A    between atoms: _22  and  _23
REMARK    9  A    between atoms: _28  and  _29
REMARK   10  A    between atoms: _31  and  _33
REMARK   11  A    between atoms: _33  and  _34
REMARK   12  A    between atoms: _33  and  _36
REMARK   13  A    between atoms: _36  and  _37
REMARK   14  A    between atoms: _40  and  _41
REMARK   15  A    between atoms: _46  and  _48
REMARK   16  A    between atoms: _48  and  _49
REMARK   17  A    between atoms: _48  and  _51
REMARK   18  A    between atoms: _51  and  _52
REMARK   19  A    between atoms: _57  and  _59
REMARK   20  A    between atoms: _59  and  _60
REMARK   21  A    between atoms: _63  and  _65
REMARK   22  A    between atoms: _65  and  _66
REMARK   23  A    between atoms: _65  and  _68
REMARK   24  A    between atoms: _68  and  _69
REMARK   25  A    between atoms: _74  and  _76
REMARK   26  A    between atoms: _76  and  _77
REMARK   27  A    between atoms: _76  and  _79
REMARK   28  A    between atoms: _79  and  _80
REMARK   29  A    between atoms: _83  and  _85
REMARK   30  A    between atoms: _85  and  _86
REMARK   31  A    between atoms: _85  and  _88
REMARK   32  A    between atoms: _88  and  _89
REMARK   33  A    between atoms: _89  and  _90
REMARK   34  A    between atoms: _95  and  _97
REMARK   35  A    between atoms: _97  and  _98
REMARK   36  A    between atoms: _97  and  _100
REMARK   37  A    between atoms: _100  and  _101
REMARK   38  A    between atoms: _107  and  _109
REMARK   39  A    between atoms: _120  and  _123
REMARK   40  A    between atoms: _123  and  _124
REMARK   41  A    between atoms: _132  and  _133
REMARK   42  A    between atoms: _141  and  _143
REMARK   43  A    between atoms: _143  and  _144
REMARK   44  A    between atoms: _143  and  _146
REMARK   45  A    between atoms: _146  and  _147
REMARK   46  A    between atoms: _147  and  _148
REMARK   47  A    between atoms: _151  and  _153
REMARK   48  A    between atoms: _153  and  _154
REMARK   49  A    between atoms: _153  and  _156
REMARK   50  A    between atoms: _156  and  _157
REMARK   51  A    between atoms: _162  and  _164
REMARK   52  A    between atoms: _164  and  _165
REMARK   53  A    between atoms: _164  and  _167
REMARK   54  A    between atoms: _167  and  _168
REMARK   55  A    between atoms: _168  and  _169
REMARK   56  A    between atoms: _172  and  _174
REMARK   57  A    between atoms: _174  and  _175
REMARK   58  A    between atoms: _174  and  _177
REMARK   59  A    between atoms: _177  and  _178
REMARK   60  A    between atoms: _181  and  _183
REMARK   61  A    between atoms: _183  and  _184
REMARK   62  A    between atoms: _183  and  _186
REMARK   63  A    between atoms: _186  and  _187
REMARK   64  A    between atoms: _188  and  ZN_403
REMARK   65  A    between atoms: _192  and  _194
REMARK   66  A    between atoms: _194  and  _195
REMARK   67  A    between atoms: _194  and  _197
REMARK   68  A    between atoms: _197  and  _198
REMARK   69  A    between atoms: _201  and  _203
REMARK   70  A    between atoms: _203  and  _204
REMARK   71  A    between atoms: _203  and  _206
REMARK   72  A    between atoms: _209  and  _211
REMARK   73  A    between atoms: _211  and  _212
REMARK   74  A    between atoms: _211  and  _214
REMARK   75  A    between atoms: _214  and  _215
REMARK   76  A    between atoms: _220  and  _222
REMARK   77  A    between atoms: _222  and  _223
REMARK   78  A    between atoms: _222  and  _225
REMARK   79  A    between atoms: _225  and  _226
REMARK   80  A    between atoms: _232  and  _234
REMARK   81  A    between atoms: _234  and  _235
REMARK   82  A    between atoms: _234  and  _237
REMARK   83  A    between atoms: _240  and  _242
REMARK   84  A    between atoms: _242  and  _243
REMARK   85  A    between atoms: _242  and  _245
REMARK   86  A    between atoms: _245  and  _246
REMARK   87  A    between atoms: _249  and  _251
REMARK   88  A    between atoms: _251  and  _252
REMARK   89  A    between atoms: _255  and  _257
REMARK   90  A    between atoms: _257  and  _258
REMARK   91  A    between atoms: _257  and  _260
REMARK   92  A    between atoms: _263  and  _265
REMARK   93  A    between atoms: _265  and  _266
REMARK   94  A    between atoms: _265  and  _268
REMARK   95  A    between atoms: _268  and  _269
REMARK   96  A    between atoms: _272  and  _274
REMARK   97  A    between atoms: _274  and  _275
REMARK   98  A    between atoms: _277  and  _279
REMARK   99  A    between atoms: _279  and  _280
REMARK  100  A    between atoms: _279  and  _282
REMARK  101  A    between atoms: _282  and  _283
REMARK  102  A    between atoms: _285  and  _287
REMARK  103  A    between atoms: _287  and  _288
REMARK  104  A    between atoms: _287  and  _290
REMARK  105  A    between atoms: _290  and  _291
REMARK  106  A    between atoms: _294  and  _296
REMARK  107  A    between atoms: _296  and  _297
REMARK  108  A    between atoms: _296  and  _299
REMARK  109  A    between atoms: _299  and  _300
REMARK  110  A    between atoms: _303  and  _305
REMARK  111  A    between atoms: _305  and  _306
REMARK  112  A    between atoms: _305  and  _308
REMARK  113  A    between atoms: _308  and  _309
REMARK  114  A    between atoms: _313  and  _314
REMARK  115  A    between atoms: _320  and  _321
REMARK  116  A    between atoms: _326  and  _328
REMARK  117  A    between atoms: _328  and  _329
REMARK  118  A    between atoms: _328  and  _331
REMARK  119  A    between atoms: _331  and  _332
REMARK  120  A    between atoms: _335  and  _337
REMARK  121  A    between atoms: _337  and  _338
REMARK  122  A    between atoms: _337  and  _340
REMARK  123  A    between atoms: _340  and  _341
REMARK  124  A    between atoms: _344  and  _346
REMARK  125  A    between atoms: _346  and  _347
REMARK  126  A    between atoms: _346  and  _349
REMARK  127  A    between atoms: _351  and  _353
REMARK  128  A    between atoms: _353  and  _354
REMARK  129  A    between atoms: _353  and  _356
REMARK  130  A    between atoms: _359  and  _361
REMARK  131  A    between atoms: _361  and  _362
REMARK  132  A    between atoms: _361  and  _364
REMARK  133  A    between atoms: _364  and  _365
REMARK  134  A    between atoms: _375  and  _377
REMARK  135  A    between atoms: _377  and  _378
REMARK  136  A    between atoms: _377  and  _380
REMARK  137  A    between atoms: _380  and  _381
REMARK  138  A    between atoms: _386  and  _388
REMARK  139  A    between atoms: _388  and  _389
REMARK  140  A    between atoms: _388  and  _391
REMARK  141  A    between atoms: _391  and  _392
REMARK  142  A    between atoms: _392  and  _393
REMARK  143  A    between atoms: _393  and  _394
REMARK                            x       y       z     vdW  Elec       q    Type
REMARK                         _______ _______ _______ _____ _____    ______ ____
ROOT
ATOM      1  CG  TRP A   1      12.478   1.779  24.332  0.00  0.00    -0.002 A 
ATOM      2  CD1 TRP A   1      13.716   2.369  24.531  0.00  0.00    +0.068 A 
ATOM      3  NE1 TRP A   1      14.439   2.345  23.364  0.00  0.00    -0.352 N 
ATOM      4  HE1 TRP A   1      15.399   2.726  23.241  0.00  0.00    +0.166 HD
ATOM      5  CE2 TRP A   1      13.687   1.733  22.378  0.00  0.00    +0.056 A 
ATOM      6  CZ2 TRP A   1      13.976   1.463  21.032  0.00  0.00    +0.017 A 
ATOM      7  CH2 TRP A   1      13.000   0.816  20.301  0.00  0.00    +0.001 A 
ATOM      8  CZ3 TRP A   1      11.765   0.445  20.862  0.00  0.00    +0.000 A 
ATOM      9  CE3 TRP A   1      11.484   0.701  22.168  0.00  0.00    +0.001 A 
ATOM     10  CD2 TRP A   1      12.451   1.357  22.967  0.00  0.00    +0.013 A 
ENDROOT
BRANCH   1  11
ATOM     11  CB  TRP A   1      11.372   1.649  25.300  0.00  0.00    +0.053 C 
BRANCH  11  12
ATOM     12  CA  TRP A   1      10.349   2.800  25.144  0.00  0.00    +0.137 C 
BRANCH  12  13
ATOM     13  N   TRP A   1      10.777   3.994  25.871  0.00  0.00    -0.239 NA
ATOM     14  H   TRP A   1      11.341   3.892  26.739  0.00  0.00    +0.142 HD
ENDBRANCH  12  13
BRANCH  12  15
ATOM     15  C   TRP A   1       8.991   2.345  25.666  0.00  0.00    +0.224 C 
ATOM     16  O   TRP A   1       8.772   2.306  26.893  0.00  0.00    -0.287 OA
ENDBRANCH  12  15
ENDBRANCH  11  12
ENDBRANCH   1  11
TORSDOF 4
REMARK  Name = ../refined-set-2016/2wej/2wej_pocket.pdb
REMARK  143 active torsions:
REMARK  status: ('A' for Active; 'I' for Inactive)
REMARK    1  A    between atoms: _1  and  _3
REMARK    2  A    between atoms: _3  and  _4
REMARK    3  A    between atoms: _3  and  _6
REMARK    4  A    between atoms: _6  and  _7
REMARK    5  A    between atoms: _17  and  _19
REMARK    6  A    between atoms: _19  and  _20
REMARK    7  A    between atoms: _19  and  _22
REMARK    8  A    between atoms: _22  and  _23
REMARK    9  A    between atoms: _28  and  _29
REMARK   10  A    between atoms: _31  and  _33
REMARK   11  A    between atoms: _33  and  _34
REMARK   12  A    between atoms: _33  and  _36
REMARK   13  A    between atoms: _36  and  _37
REMARK   14  A    between atoms: _40  and  _41
REMARK   15  A    between atoms: _46  and  _48
REMARK   16  A    between atoms: _48  and  _49
REMARK   17  A    between atoms: _48  and  _51
REMARK   18  A    between atoms: _51  and  _52
REMARK   19  A    between atoms: _57  and  _59
REMARK   20  A    between atoms: _59  and  _60
REMARK   21  A    between atoms: _63  and  _65
REMARK   22  A    between atoms: _65  and  _66
REMARK   23  A    between atoms: _65  and  _68
REMARK   24  A    between atoms: _68  and  _69
REMARK   25  A    between atoms: _74  and  _76
REMARK   26  A    between atoms: _76  and  _77
REMARK   27  A    between atoms: _76  and  _79
REMARK   28  A    between atoms: _79  and  _80
REMARK   29  A    between atoms: _83  and  _85
REMARK   30  A    between atoms: _85  and  _86
REMARK   31  A    between atoms: _85  and  _88
REMARK   32  A    between atoms: _88  and  _89
REMARK   33  A    between atoms: _89  and  _90
REMARK   34  A    between atoms: _95  and  _97
REMARK   35  A    between atoms: _97  and  _98
REMARK   36  A    between atoms: _97  and  _100
REMARK   37  A    between atoms: _100  and  _101
REMARK   38  A    between atoms: _107  and  _109
REMARK   39  A    between atoms: _120  and  _123
REMARK   40  A    between atoms: _123  and  _124
REMARK   41  A    between atoms: _132  and  _133
REMARK   42  A    between atoms: _141  and  _143
REMARK   43  A    between atoms: _143  and  _144
REMARK   44  A    between atoms: _143  and  _146
REMARK   45  A    between atoms: _146  and  _147
REMARK   46  A    between atoms: _147  and  _148
REMARK   47  A    between atoms: _151  and  _153
REMARK   48  A    between atoms: _153  and  _154
REMARK   49  A    between atoms: _153  and  _156
REMARK   50  A    between atoms: _156  and  _157
REMARK   51  A    between atoms: _162  and  _164
REMARK   52  A    between atoms: _164  and  _165
REMARK   53  A    between atoms: _164  and  _167
REMARK   54  A    between atoms: _167  and  _168
REMARK   55  A    between atoms: _168  and  _169
REMARK   56  A    between atoms: _172  and  _174
REMARK   57  A    between atoms: _174  and  _175
REMARK   58  A    between atoms: _174  and  _177
REMARK   59  A    between atoms: _177  and  _178
REMARK   60  A    between atoms: _181  and  _183
REMARK   61  A    between atoms: _183  and  _184
REMARK   62  A    between atoms: _183  and  _186
REMARK   63  A    between atoms: _186  and  _187
REMARK   64  A    between atoms: _188  and  ZN_403
REMARK   65  A    between atoms: _192  and  _194
REMARK   66  A    between atoms: _194  and  _195
REMARK   67  A    between atoms: _194  and  _197
REMARK   68  A    between atoms: _197  and  _198
REMARK   69  A    between atoms: _201  and  _203
REMARK   70  A    between atoms: _203  and  _204
REMARK   71  A    between atoms: _203  and  _206
REMARK   72  A    between atoms: _209  and  _211
REMARK   73  A    between atoms: _211  and  _212
REMARK   74  A    between atoms: _211  and  _214
REMARK   75  A    between atoms: _214  and  _215
REMARK   76  A    between atoms: _220  and  _222
REMARK   77  A    between atoms: _222  and  _223
REMARK   78  A    between atoms: _222  and  _225
REMARK   79  A    between atoms: _225  and  _226
REMARK   80  A    between atoms: _232  and  _234
REMARK   81  A    between atoms: _234  and  _235
REMARK   82  A    between atoms: _234  and  _237
REMARK   83  A    between atoms: _240  and  _242
REMARK   84  A    between atoms: _242  and  _243
REMARK   85  A    between atoms: _242  and  _245
REMARK   86  A    between atoms: _245  and  _246
REMARK   87  A    between atoms: _249  and  _251
REMARK   88  A    between atoms: _251  and  _252
REMARK   89  A    between atoms: _255  and  _257
REMARK   90  A    between atoms: _257  and  _258
REMARK   91  A    between atoms: _257  and  _260
REMARK   92  A    between atoms: _263  and  _265
REMARK   93  A    between atoms: _265  and  _266
REMARK   94  A    between atoms: _265  and  _268
REMARK   95  A    between atoms: _268  and  _269
REMARK   96  A    between atoms: _272  and  _274
REMARK   97  A    between atoms: _274  and  _275
REMARK   98  A    between atoms: _277  and  _279
REMARK   99  A    between atoms: _279  and  _280
REMARK  100  A    between atoms: _279  and  _282
REMARK  101  A    between atoms: _282  and  _283
REMARK  102  A    between atoms: _285  and  _287
REMARK  103  A    between atoms: _287  and  _288
REMARK  104  A    between atoms: _287  and  _290
REMARK  105  A    between atoms: _290  and  _291
REMARK  106  A    between atoms: _294  and  _296
REMARK  107  A    between atoms: _296  and  _297
REMARK  108  A    between atoms: _296  and  _299
REMARK  109  A    between atoms: _299  and  _300
REMARK  110  A    between atoms: _303  and  _305
REMARK  111  A    between atoms: _305  and  _306
REMARK  112  A    between atoms: _305  and  _308
REMARK  113  A    between atoms: _308  and  _309
REMARK  114  A    between atoms: _313  and  _314
REMARK  115  A    between atoms: _320  and  _321
REMARK  116  A    between atoms: _326  and  _328
REMARK  117  A    between atoms: _328  and  _329
REMARK  118  A    between atoms: _328  and  _331
REMARK  119  A    between atoms: _331  and  _332
REMARK  120  A    between atoms: _335  and  _337
REMARK  121  A    between atoms: _337  and  _338
REMARK  122  A    between atoms: _337  and  _340
REMARK  123  A    between atoms: _340  and  _341
REMARK  124  A    between atoms: _344  and  _346
REMARK  125  A    between atoms: _346  and  _347
REMARK  126  A    between atoms: _346  and  _349
REMARK  127  A    between atoms: _351  and  _353
REMARK  128  A    between atoms: _353  and  _354
REMARK  129  A    between atoms: _353  and  _356
REMARK  130  A    between atoms: _359  and  _361
REMARK  131  A    between atoms: _361  and  _362
REMARK  132  A    between atoms: _361  and  _364
REMARK  133  A    between atoms: _364  and  _365
REMARK  134  A    between atoms: _375  and  _377
REMARK  135  A    between atoms: _377  and  _378
REMARK  136  A    between atoms: _377  and  _380
REMARK  137  A    between atoms: _380  and  _381
REMARK  138  A    between atoms: _386  and  _388
REMARK  139  A    between atoms: _388  and  _389
REMARK  140  A    between atoms: _388  and  _391
REMARK  141  A    between atoms: _391  and  _392
REMARK  142  A    between atoms: _392  and  _393
REMARK  143  A    between atoms: _393  and  _394
REMARK                            x       y       z     vdW  Elec       q    Type
REMARK                         _______ _______ _______ _____ _____    ______ ____
ROOT
ATOM      1  CB  ASN A   1      19.338  -5.532  10.534  0.00  0.00    +0.110 C 
ENDROOT
BRANCH   1   2
ATOM      2  CG  ASN A   1      17.831  -5.656  10.335  0.00  0.00    +0.221 C 
ATOM      3  OD1 ASN A   1      17.177  -6.552  10.872  0.00  0.00    -0.275 OA
ATOM      4  ND2 ASN A   1      17.261  -4.724   9.536  0.00  0.00    -0.329 N 
ATOM      5 HD21 ASN A   1      16.237  -4.749   9.357  0.00  0.00    +0.145 HD
ATOM      6 HD22 ASN A   1      17.847  -3.983   9.101  0.00  0.00    +0.145 HD
ENDBRANCH   1   2
BRANCH   1   7
ATOM      7  CA  ASN A   1      19.880  -6.422  11.673  0.00  0.00    +0.142 C 
BRANCH   7   8
ATOM      8  N   ASN A   1      19.584  -7.847  11.429  0.00  0.00    -0.239 NA
ATOM      9  H   ASN A   1      18.661  -8.113  11.030  0.00  0.00    +0.142 HD
ENDBRANCH   7   8
BRANCH   7  10
ATOM     10  C   ASN A   1      19.318  -5.987  13.028  0.00  0.00    +0.225 C 
ATOM     11  O   ASN A   1      18.647  -4.935  13.139  0.00  0.00    -0.287 OA
ENDBRANCH   7  10
ENDBRANCH   1   7
TORSDOF 4
REMARK  Name = ../refined-set-2016/2wej/2wej_pocket.pdb
REMARK  143 active torsions:
REMARK  status: ('A' for Active; 'I' for Inactive)
REMARK    1  A    between atoms: _1  and  _3
REMARK    2  A    between atoms: _3  and  _4
REMARK    3  A    between atoms: _3  and  _6
REMARK    4  A    between atoms: _6  and  _7
REMARK    5  A    between atoms: _17  and  _19
REMARK    6  A    between atoms: _19  and  _20
REMARK    7  A    between atoms: _19  and  _22
REMARK    8  A    between atoms: _22  and  _23
REMARK    9  A    between atoms: _28  and  _29
REMARK   10  A    between atoms: _31  and  _33
REMARK   11  A    between atoms: _33  and  _34
REMARK   12  A    between atoms: _33  and  _36
REMARK   13  A    between atoms: _36  and  _37
REMARK   14  A    between atoms: _40  and  _41
REMARK   15  A    between atoms: _46  and  _48
REMARK   16  A    between atoms: _48  and  _49
REMARK   17  A    between atoms: _48  and  _51
REMARK   18  A    between atoms: _51  and  _52
REMARK   19  A    between atoms: _57  and  _59
REMARK   20  A    between atoms: _59  and  _60
REMARK   21  A    between atoms: _63  and  _65
REMARK   22  A    between atoms: _65  and  _66
REMARK   23  A    between atoms: _65  and  _68
REMARK   24  A    between atoms: _68  and  _69
REMARK   25  A    between atoms: _74  and  _76
REMARK   26  A    between atoms: _76  and  _77
REMARK   27  A    between atoms: _76  and  _79
REMARK   28  A    between atoms: _79  and  _80
REMARK   29  A    between atoms: _83  and  _85
REMARK   30  A    between atoms: _85  and  _86
REMARK   31  A    between atoms: _85  and  _88
REMARK   32  A    between atoms: _88  and  _89
REMARK   33  A    between atoms: _89  and  _90
REMARK   34  A    between atoms: _95  and  _97
REMARK   35  A    between atoms: _97  and  _98
REMARK   36  A    between atoms: _97  and  _100
REMARK   37  A    between atoms: _100  and  _101
REMARK   38  A    between atoms: _107  and  _109
REMARK   39  A    between atoms: _120  and  _123
REMARK   40  A    between atoms: _123  and  _124
REMARK   41  A    between atoms: _132  and  _133
REMARK   42  A    between atoms: _141  and  _143
REMARK   43  A    between atoms: _143  and  _144
REMARK   44  A    between atoms: _143  and  _146
REMARK   45  A    between atoms: _146  and  _147
REMARK   46  A    between atoms: _147  and  _148
REMARK   47  A    between atoms: _151  and  _153
REMARK   48  A    between atoms: _153  and  _154
REMARK   49  A    between atoms: _153  and  _156
REMARK   50  A    between atoms: _156  and  _157
REMARK   51  A    between atoms: _162  and  _164
REMARK   52  A    between atoms: _164  and  _165
REMARK   53  A    between atoms: _164  and  _167
REMARK   54  A    between atoms: _167  and  _168
REMARK   55  A    between atoms: _168  and  _169
REMARK   56  A    between atoms: _172  and  _174
REMARK   57  A    between atoms: _174  and  _175
REMARK   58  A    between atoms: _174  and  _177
REMARK   59  A    between atoms: _177  and  _178
REMARK   60  A    between atoms: _181  and  _183
REMARK   61  A    between atoms: _183  and  _184
REMARK   62  A    between atoms: _183  and  _186
REMARK   63  A    between atoms: _186  and  _187
REMARK   64  A    between atoms: _188  and  ZN_403
REMARK   65  A    between atoms: _192  and  _194
REMARK   66  A    between atoms: _194  and  _195
REMARK   67  A    between atoms: _194  and  _197
REMARK   68  A    between atoms: _197  and  _198
REMARK   69  A    between atoms: _201  and  _203
REMARK   70  A    between atoms: _203  and  _204
REMARK   71  A    between atoms: _203  and  _206
REMARK   72  A    between atoms: _209  and  _211
REMARK   73  A    between atoms: _211  and  _212
REMARK   74  A    between atoms: _211  and  _214
REMARK   75  A    between atoms: _214  and  _215
REMARK   76  A    between atoms: _220  and  _222
REMARK   77  A    between atoms: _222  and  _223
REMARK   78  A    between atoms: _222  and  _225
REMARK   79  A    between atoms: _225  and  _226
REMARK   80  A    between atoms: _232  and  _234
REMARK   81  A    between atoms: _234  and  _235
REMARK   82  A    between atoms: _234  and  _237
REMARK   83  A    between atoms: _240  and  _242
REMARK   84  A    between atoms: _242  and  _243
REMARK   85  A    between atoms: _242  and  _245
REMARK   86  A    between atoms: _245  and  _246
REMARK   87  A    between atoms: _249  and  _251
REMARK   88  A    between atoms: _251  and  _252
REMARK   89  A    between atoms: _255  and  _257
REMARK   90  A    between atoms: _257  and  _258
REMARK   91  A    between atoms: _257  and  _260
REMARK   92  A    between atoms: _263  and  _265
REMARK   93  A    between atoms: _265  and  _266
REMARK   94  A    between atoms: _265  and  _268
REMARK   95  A    between atoms: _268  and  _269
REMARK   96  A    between atoms: _272  and  _274
REMARK   97  A    between atoms: _274  and  _275
REMARK   98  A    between atoms: _277  and  _279
REMARK   99  A    between atoms: _279  and  _280
REMARK  100  A    between atoms: _279  and  _282
REMARK  101  A    between atoms: _282  and  _283
REMARK  102  A    between atoms: _285  and  _287
REMARK  103  A    between atoms: _287  and  _288
REMARK  104  A    between atoms: _287  and  _290
REMARK  105  A    between atoms: _290  and  _291
REMARK  106  A    between atoms: _294  and  _296
REMARK  107  A    between atoms: _296  and  _297
REMARK  108  A    between atoms: _296  and  _299
REMARK  109  A    between atoms: _299  and  _300
REMARK  110  A    between atoms: _303  and  _305
REMARK  111  A    between atoms: _305  and  _306
REMARK  112  A    between atoms: _305  and  _308
REMARK  113  A    between atoms: _308  and  _309
REMARK  114  A    between atoms: _313  and  _314
REMARK  115  A    between atoms: _320  and  _321
REMARK  116  A    between atoms: _326  and  _328
REMARK  117  A    between atoms: _328  and  _329
REMARK  118  A    between atoms: _328  and  _331
REMARK  119  A    between atoms: _331  and  _332
REMARK  120  A    between atoms: _335  and  _337
REMARK  121  A    between atoms: _337  and  _338
REMARK  122  A    between atoms: _337  and  _340
REMARK  123  A    between atoms: _340  and  _341
REMARK  124  A    between atoms: _344  and  _346
REMARK  125  A    between atoms: _346  and  _347
REMARK  126  A    between atoms: _346  and  _349
REMARK  127  A    between atoms: _351  and  _353
REMARK  128  A    between atoms: _353  and  _354
REMARK  129  A    between atoms: _353  and  _356
REMARK  130  A    between atoms: _359  and  _361
REMARK  131  A    between atoms: _361  and  _362
REMARK  132  A    between atoms: _361  and  _364
REMARK  133  A    between atoms: _364  and  _365
REMARK  134  A    between atoms: _375  and  _377
REMARK  135  A    between atoms: _377  and  _378
REMARK  136  A    between atoms: _377  and  _380
REMARK  137  A    between atoms: _380  and  _381
REMARK  138  A    between atoms: _386  and  _388
REMARK  139  A    between atoms: _388  and  _389
REMARK  140  A    between atoms: _388  and  _391
REMARK  141  A    between atoms: _391  and  _392
REMARK  142  A    between atoms: _392  and  _393
REMARK  143  A    between atoms: _393  and  _394
REMARK                            x       y       z     vdW  Elec       q    Type
REMARK                         _______ _______ _______ _____ _____    ______ ____
ROOT
ATOM      1  NE  ARG A   1      23.581  -2.097  21.383  0.00  0.00    -0.265 N 
ATOM      2  CZ  ARG A   1      23.743  -1.064  22.213  0.00  0.00    +0.342 C 
ATOM      3  NH2 ARG A   1      24.958  -0.836  22.710  0.00  0.00    -0.292 N 
ATOM      4 HH21 ARG A   1      25.113  -0.038  23.359  0.00  0.00    +0.255 HD
ATOM      5 HH22 ARG A   1      25.751  -1.456  22.449  0.00  0.00    +0.255 HD
ATOM      6  NH1 ARG A   1      22.723  -0.270  22.572  0.00  0.00    -0.292 N 
ATOM      7 HH11 ARG A   1      22.887   0.526  23.221  0.00  0.00    +0.255 HD
ATOM      8 HH12 ARG A   1      21.768  -0.450  22.201  0.00  0.00    +0.255 HD
ATOM      9  HE  ARG A   1      24.409  -2.697  21.195  0.00  0.00    +0.259 HD
ENDROOT
BRANCH   1  10
ATOM     10  CD  ARG A   1      22.315  -2.451  20.712  0.00  0.00    +0.174 C 
BRANCH  10  11
ATOM     11  CG  ARG A   1      22.474  -3.804  20.025  0.00  0.00    +0.045 C 
BRANCH  11  12
ATOM     12  CB  ARG A   1      21.358  -4.037  19.014  0.00  0.00    +0.029 C 
BRANCH  12  13
ATOM     13  CA  ARG A   1      21.248  -5.490  18.494  0.00  0.00    +0.133 C 
BRANCH  13  14
ATOM     14  N   ARG A   1      20.305  -5.566  17.354  0.00  0.00    -0.239 NA
ATOM     15  H   ARG A   1      19.525  -4.879  17.310  0.00  0.00    +0.142 HD
ENDBRANCH  13  14
BRANCH  13  16
ATOM     16  C   ARG A   1      20.729  -6.395  19.625  0.00  0.00    +0.224 C 
ATOM     17  O   ARG A   1      19.532  -6.398  19.918  0.00  0.00    -0.287 OA
ENDBRANCH  13  16
ENDBRANCH  12  13
ENDBRANCH  11  12
ENDBRANCH  10  11
ENDBRANCH   1  10
TORSDOF 6
REMARK  Name = ../refined-set-2016/2wej/2wej_pocket.pdb
REMARK  143 active torsions:
REMARK  status: ('A' for Active; 'I' for Inactive)
REMARK    1  A    between atoms: _1  and  _3
REMARK    2  A    between atoms: _3  and  _4
REMARK    3  A    between atoms: _3  and  _6
REMARK    4  A    between atoms: _6  and  _7
REMARK    5  A    between atoms: _17  and  _19
REMARK    6  A    between atoms: _19  and  _20
REMARK    7  A    between atoms: _19  and  _22
REMARK    8  A    between atoms: _22  and  _23
REMARK    9  A    between atoms: _28  and  _29
REMARK   10  A    between atoms: _31  and  _33
REMARK   11  A    between atoms: _33  and  _34
REMARK   12  A    between atoms: _33  and  _36
REMARK   13  A    between atoms: _36  and  _37
REMARK   14  A    between atoms: _40  and  _41
REMARK   15  A    between atoms: _46  and  _48
REMARK   16  A    between atoms: _48  and  _49
REMARK   17  A    between atoms: _48  and  _51
REMARK   18  A    between atoms: _51  and  _52
REMARK   19  A    between atoms: _57  and  _59
REMARK   20  A    between atoms: _59  and  _60
REMARK   21  A    between atoms: _63  and  _65
REMARK   22  A    between atoms: _65  and  _66
REMARK   23  A    between atoms: _65  and  _68
REMARK   24  A    between atoms: _68  and  _69
REMARK   25  A    between atoms: _74  and  _76
REMARK   26  A    between atoms: _76  and  _77
REMARK   27  A    between atoms: _76  and  _79
REMARK   28  A    between atoms: _79  and  _80
REMARK   29  A    between atoms: _83  and  _85
REMARK   30  A    between atoms: _85  and  _86
REMARK   31  A    between atoms: _85  and  _88
REMARK   32  A    between atoms: _88  and  _89
REMARK   33  A    between atoms: _89  and  _90
REMARK   34  A    between atoms: _95  and  _97
REMARK   35  A    between atoms: _97  and  _98
REMARK   36  A    between atoms: _97  and  _100
REMARK   37  A    between atoms: _100  and  _101
REMARK   38  A    between atoms: _107  and  _109
REMARK   39  A    between atoms: _120  and  _123
REMARK   40  A    between atoms: _123  and  _124
REMARK   41  A    between atoms: _132  and  _133
REMARK   42  A    between atoms: _141  and  _143
REMARK   43  A    between atoms: _143  and  _144
REMARK   44  A    between atoms: _143  and  _146
REMARK   45  A    between atoms: _146  and  _147
REMARK   46  A    between atoms: _147  and  _148
REMARK   47  A    between atoms: _151  and  _153
REMARK   48  A    between atoms: _153  and  _154
REMARK   49  A    between atoms: _153  and  _156
REMARK   50  A    between atoms: _156  and  _157
REMARK   51  A    between atoms: _162  and  _164
REMARK   52  A    between atoms: _164  and  _165
REMARK   53  A    between atoms: _164  and  _167
REMARK   54  A    between atoms: _167  and  _168
REMARK   55  A    between atoms: _168  and  _169
REMARK   56  A    between atoms: _172  and  _174
REMARK   57  A    between atoms: _174  and  _175
REMARK   58  A    between atoms: _174  and  _177
REMARK   59  A    between atoms: _177  and  _178
REMARK   60  A    between atoms: _181  and  _183
REMARK   61  A    between atoms: _183  and  _184
REMARK   62  A    between atoms: _183  and  _186
REMARK   63  A    between atoms: _186  and  _187
REMARK   64  A    between atoms: _188  and  ZN_403
REMARK   65  A    between atoms: _192  and  _194
REMARK   66  A    between atoms: _194  and  _195
REMARK   67  A    between atoms: _194  and  _197
REMARK   68  A    between atoms: _197  and  _198
REMARK   69  A    between atoms: _201  and  _203
REMARK   70  A    between atoms: _203  and  _204
REMARK   71  A    between atoms: _203  and  _206
REMARK   72  A    between atoms: _209  and  _211
REMARK   73  A    between atoms: _211  and  _212
REMARK   74  A    between atoms: _211  and  _214
REMARK   75  A    between atoms: _214  and  _215
REMARK   76  A    between atoms: _220  and  _222
REMARK   77  A    between atoms: _222  and  _223
REMARK   78  A    between atoms: _222  and  _225
REMARK   79  A    between atoms: _225  and  _226
REMARK   80  A    between atoms: _232  and  _234
REMARK   81  A    between atoms: _234  and  _235
REMARK   82  A    between atoms: _234  and  _237
REMARK   83  A    between atoms: _240  and  _242
REMARK   84  A    between atoms: _242  and  _243
REMARK   85  A    between atoms: _242  and  _245
REMARK   86  A    between atoms: _245  and  _246
REMARK   87  A    between atoms: _249  and  _251
REMARK   88  A    between atoms: _251  and  _252
REMARK   89  A    between atoms: _255  and  _257
REMARK   90  A    between atoms: _257  and  _258
REMARK   91  A    between atoms: _257  and  _260
REMARK   92  A    between atoms: _263  and  _265
REMARK   93  A    between atoms: _265  and  _266
REMARK   94  A    between atoms: _265  and  _268
REMARK   95  A    between atoms: _268  and  _269
REMARK   96  A    between atoms: _272  and  _274
REMARK   97  A    between atoms: _274  and  _275
REMARK   98  A    between atoms: _277  and  _279
REMARK   99  A    between atoms: _279  and  _280
REMARK  100  A    between atoms: _279  and  _282
REMARK  101  A    between atoms: _282  and  _283
REMARK  102  A    between atoms: _285  and  _287
REMARK  103  A    between atoms: _287  and  _288
REMARK  104  A    between atoms: _287  and  _290
REMARK  105  A    between atoms: _290  and  _291
REMARK  106  A    between atoms: _294  and  _296
REMARK  107  A    between atoms: _296  and  _297
REMARK  108  A    between atoms: _296  and  _299
REMARK  109  A    between atoms: _299  and  _300
REMARK  110  A    between atoms: _303  and  _305
REMARK  111  A    between atoms: _305  and  _306
REMARK  112  A    between atoms: _305  and  _308
REMARK  113  A    between atoms: _308  and  _309
REMARK  114  A    between atoms: _313  and  _314
REMARK  115  A    between atoms: _320  and  _321
REMARK  116  A    between atoms: _326  and  _328
REMARK  117  A    between atoms: _328  and  _329
REMARK  118  A    between atoms: _328  and  _331
REMARK  119  A    between atoms: _331  and  _332
REMARK  120  A    between atoms: _335  and  _337
REMARK  121  A    between atoms: _337  and  _338
REMARK  122  A    between atoms: _337  and  _340
REMARK  123  A    between atoms: _340  and  _341
REMARK  124  A    between atoms: _344  and  _346
REMARK  125  A    between atoms: _346  and  _347
REMARK  126  A    between atoms: _346  and  _349
REMARK  127  A    between atoms: _351  and  _353
REMARK  128  A    between atoms: _353  and  _354
REMARK  129  A    between atoms: _353  and  _356
REMARK  130  A    between atoms: _359  and  _361
REMARK  131  A    between atoms: _361  and  _362
REMARK  132  A    between atoms: _361  and  _364
REMARK  133  A    between atoms: _364  and  _365
REMARK  134  A    between atoms: _375  and  _377
REMARK  135  A    between atoms: _377  and  _378
REMARK  136  A    between atoms: _377  and  _380
REMARK  137  A    between atoms: _380  and  _381
REMARK  138  A    between atoms: _386  and  _388
REMARK  139  A    between atoms: _388  and  _389
REMARK  140  A    between atoms: _388  and  _391
REMARK  141  A    between atoms: _391  and  _392
REMARK  142  A    between atoms: _392  and  _393
REMARK  143  A    between atoms: _393  and  _394
REMARK                            x       y       z     vdW  Elec       q    Type
REMARK                         _______ _______ _______ _____ _____    ______ ____
ROOT
ATOM      1  O   HOH     1      20.360   5.518  10.622  0.00  0.00    +0.000 OA
ENDROOT
TORSDOF 0
REMARK  Name = ../refined-set-2016/2wej/2wej_pocket.pdb
REMARK  143 active torsions:
REMARK  status: ('A' for Active; 'I' for Inactive)
REMARK    1  A    between atoms: _1  and  _3
REMARK    2  A    between atoms: _3  and  _4
REMARK    3  A    between atoms: _3  and  _6
REMARK    4  A    between atoms: _6  and  _7
REMARK    5  A    between atoms: _17  and  _19
REMARK    6  A    between atoms: _19  and  _20
REMARK    7  A    between atoms: _19  and  _22
REMARK    8  A    between atoms: _22  and  _23
REMARK    9  A    between atoms: _28  and  _29
REMARK   10  A    between atoms: _31  and  _33
REMARK   11  A    between atoms: _33  and  _34
REMARK   12  A    between atoms: _33  and  _36
REMARK   13  A    between atoms: _36  and  _37
REMARK   14  A    between atoms: _40  and  _41
REMARK   15  A    between atoms: _46  and  _48
REMARK   16  A    between atoms: _48  and  _49
REMARK   17  A    between atoms: _48  and  _51
REMARK   18  A    between atoms: _51  and  _52
REMARK   19  A    between atoms: _57  and  _59
REMARK   20  A    between atoms: _59  and  _60
REMARK   21  A    between atoms: _63  and  _65
REMARK   22  A    between atoms: _65  and  _66
REMARK   23  A    between atoms: _65  and  _68
REMARK   24  A    between atoms: _68  and  _69
REMARK   25  A    between atoms: _74  and  _76
REMARK   26  A    between atoms: _76  and  _77
REMARK   27  A    between atoms: _76  and  _79
REMARK   28  A    between atoms: _79  and  _80
REMARK   29  A    between atoms: _83  and  _85
REMARK   30  A    between atoms: _85  and  _86
REMARK   31  A    between atoms: _85  and  _88
REMARK   32  A    between atoms: _88  and  _89
REMARK   33  A    between atoms: _89  and  _90
REMARK   34  A    between atoms: _95  and  _97
REMARK   35  A    between atoms: _97  and  _98
REMARK   36  A    between atoms: _97  and  _100
REMARK   37  A    between atoms: _100  and  _101
REMARK   38  A    between atoms: _107  and  _109
REMARK   39  A    between atoms: _120  and  _123
REMARK   40  A    between atoms: _123  and  _124
REMARK   41  A    between atoms: _132  and  _133
REMARK   42  A    between atoms: _141  and  _143
REMARK   43  A    between atoms: _143  and  _144
REMARK   44  A    between atoms: _143  and  _146
REMARK   45  A    between atoms: _146  and  _147
REMARK   46  A    between atoms: _147  and  _148
REMARK   47  A    between atoms: _151  and  _153
REMARK   48  A    between atoms: _153  and  _154
REMARK   49  A    between atoms: _153  and  _156
REMARK   50  A    between atoms: _156  and  _157
REMARK   51  A    between atoms: _162  and  _164
REMARK   52  A    between atoms: _164  and  _165
REMARK   53  A    between atoms: _164  and  _167
REMARK   54  A    between atoms: _167  and  _168
REMARK   55  A    between atoms: _168  and  _169
REMARK   56  A    between atoms: _172  and  _174
REMARK   57  A    between atoms: _174  and  _175
REMARK   58  A    between atoms: _174  and  _177
REMARK   59  A    between atoms: _177  and  _178
REMARK   60  A    between atoms: _181  and  _183
REMARK   61  A    between atoms: _183  and  _184
REMARK   62  A    between atoms: _183  and  _186
REMARK   63  A    between atoms: _186  and  _187
REMARK   64  A    between atoms: _188  and  ZN_403
REMARK   65  A    between atoms: _192  and  _194
REMARK   66  A    between atoms: _194  and  _195
REMARK   67  A    between atoms: _194  and  _197
REMARK   68  A    between atoms: _197  and  _198
REMARK   69  A    between atoms: _201  and  _203
REMARK   70  A    between atoms: _203  and  _204
REMARK   71  A    between atoms: _203  and  _206
REMARK   72  A    between atoms: _209  and  _211
REMARK   73  A    between atoms: _211  and  _212
REMARK   74  A    between atoms: _211  and  _214
REMARK   75  A    between atoms: _214  and  _215
REMARK   76  A    between atoms: _220  and  _222
REMARK   77  A    between atoms: _222  and  _223
REMARK   78  A    between atoms: _222  and  _225
REMARK   79  A    between atoms: _225  and  _226
REMARK   80  A    between atoms: _232  and  _234
REMARK   81  A    between atoms: _234  and  _235
REMARK   82  A    between atoms: _234  and  _237
REMARK   83  A    between atoms: _240  and  _242
REMARK   84  A    between atoms: _242  and  _243
REMARK   85  A    between atoms: _242  and  _245
REMARK   86  A    between atoms: _245  and  _246
REMARK   87  A    between atoms: _249  and  _251
REMARK   88  A    between atoms: _251  and  _252
REMARK   89  A    between atoms: _255  and  _257
REMARK   90  A    between atoms: _257  and  _258
REMARK   91  A    between atoms: _257  and  _260
REMARK   92  A    between atoms: _263  and  _265
REMARK   93  A    between atoms: _265  and  _266
REMARK   94  A    between atoms: _265  and  _268
REMARK   95  A    between atoms: _268  and  _269
REMARK   96  A    between atoms: _272  and  _274
REMARK   97  A    between atoms: _274  and  _275
REMARK   98  A    between atoms: _277  and  _279
REMARK   99  A    between atoms: _279  and  _280
REMARK  100  A    between atoms: _279  and  _282
REMARK  101  A    between atoms: _282  and  _283
REMARK  102  A    between atoms: _285  and  _287
REMARK  103  A    between atoms: _287  and  _288
REMARK  104  A    between atoms: _287  and  _290
REMARK  105  A    between atoms: _290  and  _291
REMARK  106  A    between atoms: _294  and  _296
REMARK  107  A    between atoms: _296  and  _297
REMARK  108  A    between atoms: _296  and  _299
REMARK  109  A    between atoms: _299  and  _300
REMARK  110  A    between atoms: _303  and  _305
REMARK  111  A    between atoms: _305  and  _306
REMARK  112  A    between atoms: _305  and  _308
REMARK  113  A    between atoms: _308  and  _309
REMARK  114  A    between atoms: _313  and  _314
REMARK  115  A    between atoms: _320  and  _321
REMARK  116  A    between atoms: _326  and  _328
REMARK  117  A    between atoms: _328  and  _329
REMARK  118  A    between atoms: _328  and  _331
REMARK  119  A    between atoms: _331  and  _332
REMARK  120  A    between atoms: _335  and  _337
REMARK  121  A    between atoms: _337  and  _338
REMARK  122  A    between atoms: _337  and  _340
REMARK  123  A    between atoms: _340  and  _341
REMARK  124  A    between atoms: _344  and  _346
REMARK  125  A    between atoms: _346  and  _347
REMARK  126  A    between atoms: _346  and  _349
REMARK  127  A    between atoms: _351  and  _353
REMARK  128  A    between atoms: _353  and  _354
REMARK  129  A    between atoms: _353  and  _356
REMARK  130  A    between atoms: _359  and  _361
REMARK  131  A    between atoms: _361  and  _362
REMARK  132  A    between atoms: _361  and  _364
REMARK  133  A    between atoms: _364  and  _365
REMARK  134  A    between atoms: _375  and  _377
REMARK  135  A    between atoms: _377  and  _378
REMARK  136  A    between atoms: _377  and  _380
REMARK  137  A    between atoms: _380  and  _381
REMARK  138  A    between atoms: _386  and  _388
REMARK  139  A    between atoms: _388  and  _389
REMARK  140  A    between atoms: _388  and  _391
REMARK  141  A    between atoms: _391  and  _392
REMARK  142  A    between atoms: _392  and  _393
REMARK  143  A    between atoms: _393  and  _394
REMARK                            x       y       z     vdW  Elec       q    Type
REMARK                         _______ _______ _______ _____ _____    ______ ____
ROOT
ATOM      1  O   HOH     1      18.907  -1.548  11.627  0.00  0.00    +0.000 OA
ENDROOT
TORSDOF 0
REMARK  Name = ../refined-set-2016/2wej/2wej_pocket.pdb
REMARK  143 active torsions:
REMARK  status: ('A' for Active; 'I' for Inactive)
REMARK    1  A    between atoms: _1  and  _3
REMARK    2  A    between atoms: _3  and  _4
REMARK    3  A    between atoms: _3  and  _6
REMARK    4  A    between atoms: _6  and  _7
REMARK    5  A    between atoms: _17  and  _19
REMARK    6  A    between atoms: _19  and  _20
REMARK    7  A    between atoms: _19  and  _22
REMARK    8  A    between atoms: _22  and  _23
REMARK    9  A    between atoms: _28  and  _29
REMARK   10  A    between atoms: _31  and  _33
REMARK   11  A    between atoms: _33  and  _34
REMARK   12  A    between atoms: _33  and  _36
REMARK   13  A    between atoms: _36  and  _37
REMARK   14  A    between atoms: _40  and  _41
REMARK   15  A    between atoms: _46  and  _48
REMARK   16  A    between atoms: _48  and  _49
REMARK   17  A    between atoms: _48  and  _51
REMARK   18  A    between atoms: _51  and  _52
REMARK   19  A    between atoms: _57  and  _59
REMARK   20  A    between atoms: _59  and  _60
REMARK   21  A    between atoms: _63  and  _65
REMARK   22  A    between atoms: _65  and  _66
REMARK   23  A    between atoms: _65  and  _68
REMARK   24  A    between atoms: _68  and  _69
REMARK   25  A    between atoms: _74  and  _76
REMARK   26  A    between atoms: _76  and  _77
REMARK   27  A    between atoms: _76  and  _79
REMARK   28  A    between atoms: _79  and  _80
REMARK   29  A    between atoms: _83  and  _85
REMARK   30  A    between atoms: _85  and  _86
REMARK   31  A    between atoms: _85  and  _88
REMARK   32  A    between atoms: _88  and  _89
REMARK   33  A    between atoms: _89  and  _90
REMARK   34  A    between atoms: _95  and  _97
REMARK   35  A    between atoms: _97  and  _98
REMARK   36  A    between atoms: _97  and  _100
REMARK   37  A    between atoms: _100  and  _101
REMARK   38  A    between atoms: _107  and  _109
REMARK   39  A    between atoms: _120  and  _123
REMARK   40  A    between atoms: _123  and  _124
REMARK   41  A    between atoms: _132  and  _133
REMARK   42  A    between atoms: _141  and  _143
REMARK   43  A    between atoms: _143  and  _144
REMARK   44  A    between atoms: _143  and  _146
REMARK   45  A    between atoms: _146  and  _147
REMARK   46  A    between atoms: _147  and  _148
REMARK   47  A    between atoms: _151  and  _153
REMARK   48  A    between atoms: _153  and  _154
REMARK   49  A    between atoms: _153  and  _156
REMARK   50  A    between atoms: _156  and  _157
REMARK   51  A    between atoms: _162  and  _164
REMARK   52  A    between atoms: _164  and  _165
REMARK   53  A    between atoms: _164  and  _167
REMARK   54  A    between atoms: _167  and  _168
REMARK   55  A    between atoms: _168  and  _169
REMARK   56  A    between atoms: _172  and  _174
REMARK   57  A    between atoms: _174  and  _175
REMARK   58  A    between atoms: _174  and  _177
REMARK   59  A    between atoms: _177  and  _178
REMARK   60  A    between atoms: _181  and  _183
REMARK   61  A    between atoms: _183  and  _184
REMARK   62  A    between atoms: _183  and  _186
REMARK   63  A    between atoms: _186  and  _187
REMARK   64  A    between atoms: _188  and  ZN_403
REMARK   65  A    between atoms: _192  and  _194
REMARK   66  A    between atoms: _194  and  _195
REMARK   67  A    between atoms: _194  and  _197
REMARK   68  A    between atoms: _197  and  _198
REMARK   69  A    between atoms: _201  and  _203
REMARK   70  A    between atoms: _203  and  _204
REMARK   71  A    between atoms: _203  and  _206
REMARK   72  A    between atoms: _209  and  _211
REMARK   73  A    between atoms: _211  and  _212
REMARK   74  A    between atoms: _211  and  _214
REMARK   75  A    between atoms: _214  and  _215
REMARK   76  A    between atoms: _220  and  _222
REMARK   77  A    between atoms: _222  and  _223
REMARK   78  A    between atoms: _222  and  _225
REMARK   79  A    between atoms: _225  and  _226
REMARK   80  A    between atoms: _232  and  _234
REMARK   81  A    between atoms: _234  and  _235
REMARK   82  A    between atoms: _234  and  _237
REMARK   83  A    between atoms: _240  and  _242
REMARK   84  A    between atoms: _242  and  _243
REMARK   85  A    between atoms: _242  and  _245
REMARK   86  A    between atoms: _245  and  _246
REMARK   87  A    between atoms: _249  and  _251
REMARK   88  A    between atoms: _251  and  _252
REMARK   89  A    between atoms: _255  and  _257
REMARK   90  A    between atoms: _257  and  _258
REMARK   91  A    between atoms: _257  and  _260
REMARK   92  A    between atoms: _263  and  _265
REMARK   93  A    between atoms: _265  and  _266
REMARK   94  A    between atoms: _265  and  _268
REMARK   95  A    between atoms: _268  and  _269
REMARK   96  A    between atoms: _272  and  _274
REMARK   97  A    between atoms: _274  and  _275
REMARK   98  A    between atoms: _277  and  _279
REMARK   99  A    between atoms: _279  and  _280
REMARK  100  A    between atoms: _279  and  _282
REMARK  101  A    between atoms: _282  and  _283
REMARK  102  A    between atoms: _285  and  _287
REMARK  103  A    between atoms: _287  and  _288
REMARK  104  A    between atoms: _287  and  _290
REMARK  105  A    between atoms: _290  and  _291
REMARK  106  A    between atoms: _294  and  _296
REMARK  107  A    between atoms: _296  and  _297
REMARK  108  A    between atoms: _296  and  _299
REMARK  109  A    between atoms: _299  and  _300
REMARK  110  A    between atoms: _303  and  _305
REMARK  111  A    between atoms: _305  and  _306
REMARK  112  A    between atoms: _305  and  _308
REMARK  113  A    between atoms: _308  and  _309
REMARK  114  A    between atoms: _313  and  _314
REMARK  115  A    between atoms: _320  and  _321
REMARK  116  A    between atoms: _326  and  _328
REMARK  117  A    between atoms: _328  and  _329
REMARK  118  A    between atoms: _328  and  _331
REMARK  119  A    between atoms: _331  and  _332
REMARK  120  A    between atoms: _335  and  _337
REMARK  121  A    between atoms: _337  and  _338
REMARK  122  A    between atoms: _337  and  _340
REMARK  123  A    between atoms: _340  and  _341
REMARK  124  A    between atoms: _344  and  _346
REMARK  125  A    between atoms: _346  and  _347
REMARK  126  A    between atoms: _346  and  _349
REMARK  127  A    between atoms: _351  and  _353
REMARK  128  A    between atoms: _353  and  _354
REMARK  129  A    between atoms: _353  and  _356
REMARK  130  A    between atoms: _359  and  _361
REMARK  131  A    between atoms: _361  and  _362
REMARK  132  A    between atoms: _361  and  _364
REMARK  133  A    between atoms: _364  and  _365
REMARK  134  A    between atoms: _375  and  _377
REMARK  135  A    between atoms: _377  and  _378
REMARK  136  A    between atoms: _377  and  _380
REMARK  137  A    between atoms: _380  and  _381
REMARK  138  A    between atoms: _386  and  _388
REMARK  139  A    between atoms: _388  and  _389
REMARK  140  A    between atoms: _388  and  _391
REMARK  141  A    between atoms: _391  and  _392
REMARK  142  A    between atoms: _392  and  _393
REMARK  143  A    between atoms: _393  and  _394
REMARK                            x       y       z     vdW  Elec       q    Type
REMARK                         _______ _______ _______ _____ _____    ______ ____
ROOT
ATOM      1  O   HOH     1      20.097  -2.389  15.949  0.00  0.00    +0.000 OA
ENDROOT
TORSDOF 0
REMARK  Name = ../refined-set-2016/2wej/2wej_pocket.pdb
REMARK  143 active torsions:
REMARK  status: ('A' for Active; 'I' for Inactive)
REMARK    1  A    between atoms: _1  and  _3
REMARK    2  A    between atoms: _3  and  _4
REMARK    3  A    between atoms: _3  and  _6
REMARK    4  A    between atoms: _6  and  _7
REMARK    5  A    between atoms: _17  and  _19
REMARK    6  A    between atoms: _19  and  _20
REMARK    7  A    between atoms: _19  and  _22
REMARK    8  A    between atoms: _22  and  _23
REMARK    9  A    between atoms: _28  and  _29
REMARK   10  A    between atoms: _31  and  _33
REMARK   11  A    between atoms: _33  and  _34
REMARK   12  A    between atoms: _33  and  _36
REMARK   13  A    between atoms: _36  and  _37
REMARK   14  A    between atoms: _40  and  _41
REMARK   15  A    between atoms: _46  and  _48
REMARK   16  A    between atoms: _48  and  _49
REMARK   17  A    between atoms: _48  and  _51
REMARK   18  A    between atoms: _51  and  _52
REMARK   19  A    between atoms: _57  and  _59
REMARK   20  A    between atoms: _59  and  _60
REMARK   21  A    between atoms: _63  and  _65
REMARK   22  A    between atoms: _65  and  _66
REMARK   23  A    between atoms: _65  and  _68
REMARK   24  A    between atoms: _68  and  _69
REMARK   25  A    between atoms: _74  and  _76
REMARK   26  A    between atoms: _76  and  _77
REMARK   27  A    between atoms: _76  and  _79
REMARK   28  A    between atoms: _79  and  _80
REMARK   29  A    between atoms: _83  and  _85
REMARK   30  A    between atoms: _85  and  _86
REMARK   31  A    between atoms: _85  and  _88
REMARK   32  A    between atoms: _88  and  _89
REMARK   33  A    between atoms: _89  and  _90
REMARK   34  A    between atoms: _95  and  _97
REMARK   35  A    between atoms: _97  and  _98
REMARK   36  A    between atoms: _97  and  _100
REMARK   37  A    between atoms: _100  and  _101
REMARK   38  A    between atoms: _107  and  _109
REMARK   39  A    between atoms: _120  and  _123
REMARK   40  A    between atoms: _123  and  _124
REMARK   41  A    between atoms: _132  and  _133
REMARK   42  A    between atoms: _141  and  _143
REMARK   43  A    between atoms: _143  and  _144
REMARK   44  A    between atoms: _143  and  _146
REMARK   45  A    between atoms: _146  and  _147
REMARK   46  A    between atoms: _147  and  _148
REMARK   47  A    between atoms: _151  and  _153
REMARK   48  A    between atoms: _153  and  _154
REMARK   49  A    between atoms: _153  and  _156
REMARK   50  A    between atoms: _156  and  _157
REMARK   51  A    between atoms: _162  and  _164
REMARK   52  A    between atoms: _164  and  _165
REMARK   53  A    between atoms: _164  and  _167
REMARK   54  A    between atoms: _167  and  _168
REMARK   55  A    between atoms: _168  and  _169
REMARK   56  A    between atoms: _172  and  _174
REMARK   57  A    between atoms: _174  and  _175
REMARK   58  A    between atoms: _174  and  _177
REMARK   59  A    between atoms: _177  and  _178
REMARK   60  A    between atoms: _181  and  _183
REMARK   61  A    between atoms: _183  and  _184
REMARK   62  A    between atoms: _183  and  _186
REMARK   63  A    between atoms: _186  and  _187
REMARK   64  A    between atoms: _188  and  ZN_403
REMARK   65  A    between atoms: _192  and  _194
REMARK   66  A    between atoms: _194  and  _195
REMARK   67  A    between atoms: _194  and  _197
REMARK   68  A    between atoms: _197  and  _198
REMARK   69  A    between atoms: _201  and  _203
REMARK   70  A    between atoms: _203  and  _204
REMARK   71  A    between atoms: _203  and  _206
REMARK   72  A    between atoms: _209  and  _211
REMARK   73  A    between atoms: _211  and  _212
REMARK   74  A    between atoms: _211  and  _214
REMARK   75  A    between atoms: _214  and  _215
REMARK   76  A    between atoms: _220  and  _222
REMARK   77  A    between atoms: _222  and  _223
REMARK   78  A    between atoms: _222  and  _225
REMARK   79  A    between atoms: _225  and  _226
REMARK   80  A    between atoms: _232  and  _234
REMARK   81  A    between atoms: _234  and  _235
REMARK   82  A    between atoms: _234  and  _237
REMARK   83  A    between atoms: _240  and  _242
REMARK   84  A    between atoms: _242  and  _243
REMARK   85  A    between atoms: _242  and  _245
REMARK   86  A    between atoms: _245  and  _246
REMARK   87  A    between atoms: _249  and  _251
REMARK   88  A    between atoms: _251  and  _252
REMARK   89  A    between atoms: _255  and  _257
REMARK   90  A    between atoms: _257  and  _258
REMARK   91  A    between atoms: _257  and  _260
REMARK   92  A    between atoms: _263  and  _265
REMARK   93  A    between atoms: _265  and  _266
REMARK   94  A    between atoms: _265  and  _268
REMARK   95  A    between atoms: _268  and  _269
REMARK   96  A    between atoms: _272  and  _274
REMARK   97  A    between atoms: _274  and  _275
REMARK   98  A    between atoms: _277  and  _279
REMARK   99  A    between atoms: _279  and  _280
REMARK  100  A    between atoms: _279  and  _282
REMARK  101  A    between atoms: _282  and  _283
REMARK  102  A    between atoms: _285  and  _287
REMARK  103  A    between atoms: _287  and  _288
REMARK  104  A    between atoms: _287  and  _290
REMARK  105  A    between atoms: _290  and  _291
REMARK  106  A    between atoms: _294  and  _296
REMARK  107  A    between atoms: _296  and  _297
REMARK  108  A    between atoms: _296  and  _299
REMARK  109  A    between atoms: _299  and  _300
REMARK  110  A    between atoms: _303  and  _305
REMARK  111  A    between atoms: _305  and  _306
REMARK  112  A    between atoms: _305  and  _308
REMARK  113  A    between atoms: _308  and  _309
REMARK  114  A    between atoms: _313  and  _314
REMARK  115  A    between atoms: _320  and  _321
REMARK  116  A    between atoms: _326  and  _328
REMARK  117  A    between atoms: _328  and  _329
REMARK  118  A    between atoms: _328  and  _331
REMARK  119  A    between atoms: _331  and  _332
REMARK  120  A    between atoms: _335  and  _337
REMARK  121  A    between atoms: _337  and  _338
REMARK  122  A    between atoms: _337  and  _340
REMARK  123  A    between atoms: _340  and  _341
REMARK  124  A    between atoms: _344  and  _346
REMARK  125  A    between atoms: _346  and  _347
REMARK  126  A    between atoms: _346  and  _349
REMARK  127  A    between atoms: _351  and  _353
REMARK  128  A    between atoms: _353  and  _354
REMARK  129  A    between atoms: _353  and  _356
REMARK  130  A    between atoms: _359  and  _361
REMARK  131  A    between atoms: _361  and  _362
REMARK  132  A    between atoms: _361  and  _364
REMARK  133  A    between atoms: _364  and  _365
REMARK  134  A    between atoms: _375  and  _377
REMARK  135  A    between atoms: _377  and  _378
REMARK  136  A    between atoms: _377  and  _380
REMARK  137  A    between atoms: _380  and  _381
REMARK  138  A    between atoms: _386  and  _388
REMARK  139  A    between atoms: _388  and  _389
REMARK  140  A    between atoms: _388  and  _391
REMARK  141  A    between atoms: _391  and  _392
REMARK  142  A    between atoms: _392  and  _393
REMARK  143  A    between atoms: _393  and  _394
REMARK                            x       y       z     vdW  Elec       q    Type
REMARK                         _______ _______ _______ _____ _____    ______ ____
ROOT
ATOM      1  O   HOH     1      13.221   9.559   8.799  0.00  0.00    +0.000 OA
ENDROOT
TORSDOF 0
REMARK  Name = ../refined-set-2016/2wej/2wej_pocket.pdb
REMARK  143 active torsions:
REMARK  status: ('A' for Active; 'I' for Inactive)
REMARK    1  A    between atoms: _1  and  _3
REMARK    2  A    between atoms: _3  and  _4
REMARK    3  A    between atoms: _3  and  _6
REMARK    4  A    between atoms: _6  and  _7
REMARK    5  A    between atoms: _17  and  _19
REMARK    6  A    between atoms: _19  and  _20
REMARK    7  A    between atoms: _19  and  _22
REMARK    8  A    between atoms: _22  and  _23
REMARK    9  A    between atoms: _28  and  _29
REMARK   10  A    between atoms: _31  and  _33
REMARK   11  A    between atoms: _33  and  _34
REMARK   12  A    between atoms: _33  and  _36
REMARK   13  A    between atoms: _36  and  _37
REMARK   14  A    between atoms: _40  and  _41
REMARK   15  A    between atoms: _46  and  _48
REMARK   16  A    between atoms: _48  and  _49
REMARK   17  A    between atoms: _48  and  _51
REMARK   18  A    between atoms: _51  and  _52
REMARK   19  A    between atoms: _57  and  _59
REMARK   20  A    between atoms: _59  and  _60
REMARK   21  A    between atoms: _63  and  _65
REMARK   22  A    between atoms: _65  and  _66
REMARK   23  A    between atoms: _65  and  _68
REMARK   24  A    between atoms: _68  and  _69
REMARK   25  A    between atoms: _74  and  _76
REMARK   26  A    between atoms: _76  and  _77
REMARK   27  A    between atoms: _76  and  _79
REMARK   28  A    between atoms: _79  and  _80
REMARK   29  A    between atoms: _83  and  _85
REMARK   30  A    between atoms: _85  and  _86
REMARK   31  A    between atoms: _85  and  _88
REMARK   32  A    between atoms: _88  and  _89
REMARK   33  A    between atoms: _89  and  _90
REMARK   34  A    between atoms: _95  and  _97
REMARK   35  A    between atoms: _97  and  _98
REMARK   36  A    between atoms: _97  and  _100
REMARK   37  A    between atoms: _100  and  _101
REMARK   38  A    between atoms: _107  and  _109
REMARK   39  A    between atoms: _120  and  _123
REMARK   40  A    between atoms: _123  and  _124
REMARK   41  A    between atoms: _132  and  _133
REMARK   42  A    between atoms: _141  and  _143
REMARK   43  A    between atoms: _143  and  _144
REMARK   44  A    between atoms: _143  and  _146
REMARK   45  A    between atoms: _146  and  _147
REMARK   46  A    between atoms: _147  and  _148
REMARK   47  A    between atoms: _151  and  _153
REMARK   48  A    between atoms: _153  and  _154
REMARK   49  A    between atoms: _153  and  _156
REMARK   50  A    between atoms: _156  and  _157
REMARK   51  A    between atoms: _162  and  _164
REMARK   52  A    between atoms: _164  and  _165
REMARK   53  A    between atoms: _164  and  _167
REMARK   54  A    between atoms: _167  and  _168
REMARK   55  A    between atoms: _168  and  _169
REMARK   56  A    between atoms: _172  and  _174
REMARK   57  A    between atoms: _174  and  _175
REMARK   58  A    between atoms: _174  and  _177
REMARK   59  A    between atoms: _177  and  _178
REMARK   60  A    between atoms: _181  and  _183
REMARK   61  A    between atoms: _183  and  _184
REMARK   62  A    between atoms: _183  and  _186
REMARK   63  A    between atoms: _186  and  _187
REMARK   64  A    between atoms: _188  and  ZN_403
REMARK   65  A    between atoms: _192  and  _194
REMARK   66  A    between atoms: _194  and  _195
REMARK   67  A    between atoms: _194  and  _197
REMARK   68  A    between atoms: _197  and  _198
REMARK   69  A    between atoms: _201  and  _203
REMARK   70  A    between atoms: _203  and  _204
REMARK   71  A    between atoms: _203  and  _206
REMARK   72  A    between atoms: _209  and  _211
REMARK   73  A    between atoms: _211  and  _212
REMARK   74  A    between atoms: _211  and  _214
REMARK   75  A    between atoms: _214  and  _215
REMARK   76  A    between atoms: _220  and  _222
REMARK   77  A    between atoms: _222  and  _223
REMARK   78  A    between atoms: _222  and  _225
REMARK   79  A    between atoms: _225  and  _226
REMARK   80  A    between atoms: _232  and  _234
REMARK   81  A    between atoms: _234  and  _235
REMARK   82  A    between atoms: _234  and  _237
REMARK   83  A    between atoms: _240  and  _242
REMARK   84  A    between atoms: _242  and  _243
REMARK   85  A    between atoms: _242  and  _245
REMARK   86  A    between atoms: _245  and  _246
REMARK   87  A    between atoms: _249  and  _251
REMARK   88  A    between atoms: _251  and  _252
REMARK   89  A    between atoms: _255  and  _257
REMARK   90  A    between atoms: _257  and  _258
REMARK   91  A    between atoms: _257  and  _260
REMARK   92  A    between atoms: _263  and  _265
REMARK   93  A    between atoms: _265  and  _266
REMARK   94  A    between atoms: _265  and  _268
REMARK   95  A    between atoms: _268  and  _269
REMARK   96  A    between atoms: _272  and  _274
REMARK   97  A    between atoms: _274  and  _275
REMARK   98  A    between atoms: _277  and  _279
REMARK   99  A    between atoms: _279  and  _280
REMARK  100  A    between atoms: _279  and  _282
REMARK  101  A    between atoms: _282  and  _283
REMARK  102  A    between atoms: _285  and  _287
REMARK  103  A    between atoms: _287  and  _288
REMARK  104  A    between atoms: _287  and  _290
REMARK  105  A    between atoms: _290  and  _291
REMARK  106  A    between atoms: _294  and  _296
REMARK  107  A    between atoms: _296  and  _297
REMARK  108  A    between atoms: _296  and  _299
REMARK  109  A    between atoms: _299  and  _300
REMARK  110  A    between atoms: _303  and  _305
REMARK  111  A    between atoms: _305  and  _306
REMARK  112  A    between atoms: _305  and  _308
REMARK  113  A    between atoms: _308  and  _309
REMARK  114  A    between atoms: _313  and  _314
REMARK  115  A    between atoms: _320  and  _321
REMARK  116  A    between atoms: _326  and  _328
REMARK  117  A    between atoms: _328  and  _329
REMARK  118  A    between atoms: _328  and  _331
REMARK  119  A    between atoms: _331  and  _332
REMARK  120  A    between atoms: _335  and  _337
REMARK  121  A    between atoms: _337  and  _338
REMARK  122  A    between atoms: _337  and  _340
REMARK  123  A    between atoms: _340  and  _341
REMARK  124  A    between atoms: _344  and  _346
REMARK  125  A    between atoms: _346  and  _347
REMARK  126  A    between atoms: _346  and  _349
REMARK  127  A    between atoms: _351  and  _353
REMARK  128  A    between atoms: _353  and  _354
REMARK  129  A    between atoms: _353  and  _356
REMARK  130  A    between atoms: _359  and  _361
REMARK  131  A    between atoms: _361  and  _362
REMARK  132  A    between atoms: _361  and  _364
REMARK  133  A    between atoms: _364  and  _365
REMARK  134  A    between atoms: _375  and  _377
REMARK  135  A    between atoms: _377  and  _378
REMARK  136  A    between atoms: _377  and  _380
REMARK  137  A    between atoms: _380  and  _381
REMARK  138  A    between atoms: _386  and  _388
REMARK  139  A    between atoms: _388  and  _389
REMARK  140  A    between atoms: _388  and  _391
REMARK  141  A    between atoms: _391  and  _392
REMARK  142  A    between atoms: _392  and  _393
REMARK  143  A    between atoms: _393  and  _394
REMARK                            x       y       z     vdW  Elec       q    Type
REMARK                         _______ _______ _______ _____ _____    ______ ____
ROOT
ATOM      1  O   HOH     1      17.462   8.916  11.735  0.00  0.00    +0.000 OA
ENDROOT
TORSDOF 0
REMARK  Name = ../refined-set-2016/2wej/2wej_pocket.pdb
REMARK  143 active torsions:
REMARK  status: ('A' for Active; 'I' for Inactive)
REMARK    1  A    between atoms: _1  and  _3
REMARK    2  A    between atoms: _3  and  _4
REMARK    3  A    between atoms: _3  and  _6
REMARK    4  A    between atoms: _6  and  _7
REMARK    5  A    between atoms: _17  and  _19
REMARK    6  A    between atoms: _19  and  _20
REMARK    7  A    between atoms: _19  and  _22
REMARK    8  A    between atoms: _22  and  _23
REMARK    9  A    between atoms: _28  and  _29
REMARK   10  A    between atoms: _31  and  _33
REMARK   11  A    between atoms: _33  and  _34
REMARK   12  A    between atoms: _33  and  _36
REMARK   13  A    between atoms: _36  and  _37
REMARK   14  A    between atoms: _40  and  _41
REMARK   15  A    between atoms: _46  and  _48
REMARK   16  A    between atoms: _48  and  _49
REMARK   17  A    between atoms: _48  and  _51
REMARK   18  A    between atoms: _51  and  _52
REMARK   19  A    between atoms: _57  and  _59
REMARK   20  A    between atoms: _59  and  _60
REMARK   21  A    between atoms: _63  and  _65
REMARK   22  A    between atoms: _65  and  _66
REMARK   23  A    between atoms: _65  and  _68
REMARK   24  A    between atoms: _68  and  _69
REMARK   25  A    between atoms: _74  and  _76
REMARK   26  A    between atoms: _76  and  _77
REMARK   27  A    between atoms: _76  and  _79
REMARK   28  A    between atoms: _79  and  _80
REMARK   29  A    between atoms: _83  and  _85
REMARK   30  A    between atoms: _85  and  _86
REMARK   31  A    between atoms: _85  and  _88
REMARK   32  A    between atoms: _88  and  _89
REMARK   33  A    between atoms: _89  and  _90
REMARK   34  A    between atoms: _95  and  _97
REMARK   35  A    between atoms: _97  and  _98
REMARK   36  A    between atoms: _97  and  _100
REMARK   37  A    between atoms: _100  and  _101
REMARK   38  A    between atoms: _107  and  _109
REMARK   39  A    between atoms: _120  and  _123
REMARK   40  A    between atoms: _123  and  _124
REMARK   41  A    between atoms: _132  and  _133
REMARK   42  A    between atoms: _141  and  _143
REMARK   43  A    between atoms: _143  and  _144
REMARK   44  A    between atoms: _143  and  _146
REMARK   45  A    between atoms: _146  and  _147
REMARK   46  A    between atoms: _147  and  _148
REMARK   47  A    between atoms: _151  and  _153
REMARK   48  A    between atoms: _153  and  _154
REMARK   49  A    between atoms: _153  and  _156
REMARK   50  A    between atoms: _156  and  _157
REMARK   51  A    between atoms: _162  and  _164
REMARK   52  A    between atoms: _164  and  _165
REMARK   53  A    between atoms: _164  and  _167
REMARK   54  A    between atoms: _167  and  _168
REMARK   55  A    between atoms: _168  and  _169
REMARK   56  A    between atoms: _172  and  _174
REMARK   57  A    between atoms: _174  and  _175
REMARK   58  A    between atoms: _174  and  _177
REMARK   59  A    between atoms: _177  and  _178
REMARK   60  A    between atoms: _181  and  _183
REMARK   61  A    between atoms: _183  and  _184
REMARK   62  A    between atoms: _183  and  _186
REMARK   63  A    between atoms: _186  and  _187
REMARK   64  A    between atoms: _188  and  ZN_403
REMARK   65  A    between atoms: _192  and  _194
REMARK   66  A    between atoms: _194  and  _195
REMARK   67  A    between atoms: _194  and  _197
REMARK   68  A    between atoms: _197  and  _198
REMARK   69  A    between atoms: _201  and  _203
REMARK   70  A    between atoms: _203  and  _204
REMARK   71  A    between atoms: _203  and  _206
REMARK   72  A    between atoms: _209  and  _211
REMARK   73  A    between atoms: _211  and  _212
REMARK   74  A    between atoms: _211  and  _214
REMARK   75  A    between atoms: _214  and  _215
REMARK   76  A    between atoms: _220  and  _222
REMARK   77  A    between atoms: _222  and  _223
REMARK   78  A    between atoms: _222  and  _225
REMARK   79  A    between atoms: _225  and  _226
REMARK   80  A    between atoms: _232  and  _234
REMARK   81  A    between atoms: _234  and  _235
REMARK   82  A    between atoms: _234  and  _237
REMARK   83  A    between atoms: _240  and  _242
REMARK   84  A    between atoms: _242  and  _243
REMARK   85  A    between atoms: _242  and  _245
REMARK   86  A    between atoms: _245  and  _246
REMARK   87  A    between atoms: _249  and  _251
REMARK   88  A    between atoms: _251  and  _252
REMARK   89  A    between atoms: _255  and  _257
REMARK   90  A    between atoms: _257  and  _258
REMARK   91  A    between atoms: _257  and  _260
REMARK   92  A    between atoms: _263  and  _265
REMARK   93  A    between atoms: _265  and  _266
REMARK   94  A    between atoms: _265  and  _268
REMARK   95  A    between atoms: _268  and  _269
REMARK   96  A    between atoms: _272  and  _274
REMARK   97  A    between atoms: _274  and  _275
REMARK   98  A    between atoms: _277  and  _279
REMARK   99  A    between atoms: _279  and  _280
REMARK  100  A    between atoms: _279  and  _282
REMARK  101  A    between atoms: _282  and  _283
REMARK  102  A    between atoms: _285  and  _287
REMARK  103  A    between atoms: _287  and  _288
REMARK  104  A    between atoms: _287  and  _290
REMARK  105  A    between atoms: _290  and  _291
REMARK  106  A    between atoms: _294  and  _296
REMARK  107  A    between atoms: _296  and  _297
REMARK  108  A    between atoms: _296  and  _299
REMARK  109  A    between atoms: _299  and  _300
REMARK  110  A    between atoms: _303  and  _305
REMARK  111  A    between atoms: _305  and  _306
REMARK  112  A    between atoms: _305  and  _308
REMARK  113  A    between atoms: _308  and  _309
REMARK  114  A    between atoms: _313  and  _314
REMARK  115  A    between atoms: _320  and  _321
REMARK  116  A    between atoms: _326  and  _328
REMARK  117  A    between atoms: _328  and  _329
REMARK  118  A    between atoms: _328  and  _331
REMARK  119  A    between atoms: _331  and  _332
REMARK  120  A    between atoms: _335  and  _337
REMARK  121  A    between atoms: _337  and  _338
REMARK  122  A    between atoms: _337  and  _340
REMARK  123  A    between atoms: _340  and  _341
REMARK  124  A    between atoms: _344  and  _346
REMARK  125  A    between atoms: _346  and  _347
REMARK  126  A    between atoms: _346  and  _349
REMARK  127  A    between atoms: _351  and  _353
REMARK  128  A    between atoms: _353  and  _354
REMARK  129  A    between atoms: _353  and  _356
REMARK  130  A    between atoms: _359  and  _361
REMARK  131  A    between atoms: _361  and  _362
REMARK  132  A    between atoms: _361  and  _364
REMARK  133  A    between atoms: _364  and  _365
REMARK  134  A    between atoms: _375  and  _377
REMARK  135  A    between atoms: _377  and  _378
REMARK  136  A    between atoms: _377  and  _380
REMARK  137  A    between atoms: _380  and  _381
REMARK  138  A    between atoms: _386  and  _388
REMARK  139  A    between atoms: _388  and  _389
REMARK  140  A    between atoms: _388  and  _391
REMARK  141  A    between atoms: _391  and  _392
REMARK  142  A    between atoms: _392  and  _393
REMARK  143  A    between atoms: _393  and  _394
REMARK                            x       y       z     vdW  Elec       q    Type
REMARK                         _______ _______ _______ _____ _____    ______ ____
ROOT
ATOM      1  O   HOH     1      17.160   6.664   7.509  0.00  0.00    +0.000 OA
ENDROOT
TORSDOF 0
REMARK  Name = ../refined-set-2016/2wej/2wej_pocket.pdb
REMARK  143 active torsions:
REMARK  status: ('A' for Active; 'I' for Inactive)
REMARK    1  A    between atoms: _1  and  _3
REMARK    2  A    between atoms: _3  and  _4
REMARK    3  A    between atoms: _3  and  _6
REMARK    4  A    between atoms: _6  and  _7
REMARK    5  A    between atoms: _17  and  _19
REMARK    6  A    between atoms: _19  and  _20
REMARK    7  A    between atoms: _19  and  _22
REMARK    8  A    between atoms: _22  and  _23
REMARK    9  A    between atoms: _28  and  _29
REMARK   10  A    between atoms: _31  and  _33
REMARK   11  A    between atoms: _33  and  _34
REMARK   12  A    between atoms: _33  and  _36
REMARK   13  A    between atoms: _36  and  _37
REMARK   14  A    between atoms: _40  and  _41
REMARK   15  A    between atoms: _46  and  _48
REMARK   16  A    between atoms: _48  and  _49
REMARK   17  A    between atoms: _48  and  _51
REMARK   18  A    between atoms: _51  and  _52
REMARK   19  A    between atoms: _57  and  _59
REMARK   20  A    between atoms: _59  and  _60
REMARK   21  A    between atoms: _63  and  _65
REMARK   22  A    between atoms: _65  and  _66
REMARK   23  A    between atoms: _65  and  _68
REMARK   24  A    between atoms: _68  and  _69
REMARK   25  A    between atoms: _74  and  _76
REMARK   26  A    between atoms: _76  and  _77
REMARK   27  A    between atoms: _76  and  _79
REMARK   28  A    between atoms: _79  and  _80
REMARK   29  A    between atoms: _83  and  _85
REMARK   30  A    between atoms: _85  and  _86
REMARK   31  A    between atoms: _85  and  _88
REMARK   32  A    between atoms: _88  and  _89
REMARK   33  A    between atoms: _89  and  _90
REMARK   34  A    between atoms: _95  and  _97
REMARK   35  A    between atoms: _97  and  _98
REMARK   36  A    between atoms: _97  and  _100
REMARK   37  A    between atoms: _100  and  _101
REMARK   38  A    between atoms: _107  and  _109
REMARK   39  A    between atoms: _120  and  _123
REMARK   40  A    between atoms: _123  and  _124
REMARK   41  A    between atoms: _132  and  _133
REMARK   42  A    between atoms: _141  and  _143
REMARK   43  A    between atoms: _143  and  _144
REMARK   44  A    between atoms: _143  and  _146
REMARK   45  A    between atoms: _146  and  _147
REMARK   46  A    between atoms: _147  and  _148
REMARK   47  A    between atoms: _151  and  _153
REMARK   48  A    between atoms: _153  and  _154
REMARK   49  A    between atoms: _153  and  _156
REMARK   50  A    between atoms: _156  and  _157
REMARK   51  A    between atoms: _162  and  _164
REMARK   52  A    between atoms: _164  and  _165
REMARK   53  A    between atoms: _164  and  _167
REMARK   54  A    between atoms: _167  and  _168
REMARK   55  A    between atoms: _168  and  _169
REMARK   56  A    between atoms: _172  and  _174
REMARK   57  A    between atoms: _174  and  _175
REMARK   58  A    between atoms: _174  and  _177
REMARK   59  A    between atoms: _177  and  _178
REMARK   60  A    between atoms: _181  and  _183
REMARK   61  A    between atoms: _183  and  _184
REMARK   62  A    between atoms: _183  and  _186
REMARK   63  A    between atoms: _186  and  _187
REMARK   64  A    between atoms: _188  and  ZN_403
REMARK   65  A    between atoms: _192  and  _194
REMARK   66  A    between atoms: _194  and  _195
REMARK   67  A    between atoms: _194  and  _197
REMARK   68  A    between atoms: _197  and  _198
REMARK   69  A    between atoms: _201  and  _203
REMARK   70  A    between atoms: _203  and  _204
REMARK   71  A    between atoms: _203  and  _206
REMARK   72  A    between atoms: _209  and  _211
REMARK   73  A    between atoms: _211  and  _212
REMARK   74  A    between atoms: _211  and  _214
REMARK   75  A    between atoms: _214  and  _215
REMARK   76  A    between atoms: _220  and  _222
REMARK   77  A    between atoms: _222  and  _223
REMARK   78  A    between atoms: _222  and  _225
REMARK   79  A    between atoms: _225  and  _226
REMARK   80  A    between atoms: _232  and  _234
REMARK   81  A    between atoms: _234  and  _235
REMARK   82  A    between atoms: _234  and  _237
REMARK   83  A    between atoms: _240  and  _242
REMARK   84  A    between atoms: _242  and  _243
REMARK   85  A    between atoms: _242  and  _245
REMARK   86  A    between atoms: _245  and  _246
REMARK   87  A    between atoms: _249  and  _251
REMARK   88  A    between atoms: _251  and  _252
REMARK   89  A    between atoms: _255  and  _257
REMARK   90  A    between atoms: _257  and  _258
REMARK   91  A    between atoms: _257  and  _260
REMARK   92  A    between atoms: _263  and  _265
REMARK   93  A    between atoms: _265  and  _266
REMARK   94  A    between atoms: _265  and  _268
REMARK   95  A    between atoms: _268  and  _269
REMARK   96  A    between atoms: _272  and  _274
REMARK   97  A    between atoms: _274  and  _275
REMARK   98  A    between atoms: _277  and  _279
REMARK   99  A    between atoms: _279  and  _280
REMARK  100  A    between atoms: _279  and  _282
REMARK  101  A    between atoms: _282  and  _283
REMARK  102  A    between atoms: _285  and  _287
REMARK  103  A    between atoms: _287  and  _288
REMARK  104  A    between atoms: _287  and  _290
REMARK  105  A    between atoms: _290  and  _291
REMARK  106  A    between atoms: _294  and  _296
REMARK  107  A    between atoms: _296  and  _297
REMARK  108  A    between atoms: _296  and  _299
REMARK  109  A    between atoms: _299  and  _300
REMARK  110  A    between atoms: _303  and  _305
REMARK  111  A    between atoms: _305  and  _306
REMARK  112  A    between atoms: _305  and  _308
REMARK  113  A    between atoms: _308  and  _309
REMARK  114  A    between atoms: _313  and  _314
REMARK  115  A    between atoms: _320  and  _321
REMARK  116  A    between atoms: _326  and  _328
REMARK  117  A    between atoms: _328  and  _329
REMARK  118  A    between atoms: _328  and  _331
REMARK  119  A    between atoms: _331  and  _332
REMARK  120  A    between atoms: _335  and  _337
REMARK  121  A    between atoms: _337  and  _338
REMARK  122  A    between atoms: _337  and  _340
REMARK  123  A    between atoms: _340  and  _341
REMARK  124  A    between atoms: _344  and  _346
REMARK  125  A    between atoms: _346  and  _347
REMARK  126  A    between atoms: _346  and  _349
REMARK  127  A    between atoms: _351  and  _353
REMARK  128  A    between atoms: _353  and  _354
REMARK  129  A    between atoms: _353  and  _356
REMARK  130  A    between atoms: _359  and  _361
REMARK  131  A    between atoms: _361  and  _362
REMARK  132  A    between atoms: _361  and  _364
REMARK  133  A    between atoms: _364  and  _365
REMARK  134  A    between atoms: _375  and  _377
REMARK  135  A    between atoms: _377  and  _378
REMARK  136  A    between atoms: _377  and  _380
REMARK  137  A    between atoms: _380  and  _381
REMARK  138  A    between atoms: _386  and  _388
REMARK  139  A    between atoms: _388  and  _389
REMARK  140  A    between atoms: _388  and  _391
REMARK  141  A    between atoms: _391  and  _392
REMARK  142  A    between atoms: _392  and  _393
REMARK  143  A    between atoms: _393  and  _394
REMARK                            x       y       z     vdW  Elec       q    Type
REMARK                         _______ _______ _______ _____ _____    ______ ____
ROOT
ATOM      1  O   HOH     1      14.707   8.714  11.402  0.00  0.00    +0.000 OA
ENDROOT
TORSDOF 0
REMARK  Name = ../refined-set-2016/2wej/2wej_pocket.pdb
REMARK  143 active torsions:
REMARK  status: ('A' for Active; 'I' for Inactive)
REMARK    1  A    between atoms: _1  and  _3
REMARK    2  A    between atoms: _3  and  _4
REMARK    3  A    between atoms: _3  and  _6
REMARK    4  A    between atoms: _6  and  _7
REMARK    5  A    between atoms: _17  and  _19
REMARK    6  A    between atoms: _19  and  _20
REMARK    7  A    between atoms: _19  and  _22
REMARK    8  A    between atoms: _22  and  _23
REMARK    9  A    between atoms: _28  and  _29
REMARK   10  A    between atoms: _31  and  _33
REMARK   11  A    between atoms: _33  and  _34
REMARK   12  A    between atoms: _33  and  _36
REMARK   13  A    between atoms: _36  and  _37
REMARK   14  A    between atoms: _40  and  _41
REMARK   15  A    between atoms: _46  and  _48
REMARK   16  A    between atoms: _48  and  _49
REMARK   17  A    between atoms: _48  and  _51
REMARK   18  A    between atoms: _51  and  _52
REMARK   19  A    between atoms: _57  and  _59
REMARK   20  A    between atoms: _59  and  _60
REMARK   21  A    between atoms: _63  and  _65
REMARK   22  A    between atoms: _65  and  _66
REMARK   23  A    between atoms: _65  and  _68
REMARK   24  A    between atoms: _68  and  _69
REMARK   25  A    between atoms: _74  and  _76
REMARK   26  A    between atoms: _76  and  _77
REMARK   27  A    between atoms: _76  and  _79
REMARK   28  A    between atoms: _79  and  _80
REMARK   29  A    between atoms: _83  and  _85
REMARK   30  A    between atoms: _85  and  _86
REMARK   31  A    between atoms: _85  and  _88
REMARK   32  A    between atoms: _88  and  _89
REMARK   33  A    between atoms: _89  and  _90
REMARK   34  A    between atoms: _95  and  _97
REMARK   35  A    between atoms: _97  and  _98
REMARK   36  A    between atoms: _97  and  _100
REMARK   37  A    between atoms: _100  and  _101
REMARK   38  A    between atoms: _107  and  _109
REMARK   39  A    between atoms: _120  and  _123
REMARK   40  A    between atoms: _123  and  _124
REMARK   41  A    between atoms: _132  and  _133
REMARK   42  A    between atoms: _141  and  _143
REMARK   43  A    between atoms: _143  and  _144
REMARK   44  A    between atoms: _143  and  _146
REMARK   45  A    between atoms: _146  and  _147
REMARK   46  A    between atoms: _147  and  _148
REMARK   47  A    between atoms: _151  and  _153
REMARK   48  A    between atoms: _153  and  _154
REMARK   49  A    between atoms: _153  and  _156
REMARK   50  A    between atoms: _156  and  _157
REMARK   51  A    between atoms: _162  and  _164
REMARK   52  A    between atoms: _164  and  _165
REMARK   53  A    between atoms: _164  and  _167
REMARK   54  A    between atoms: _167  and  _168
REMARK   55  A    between atoms: _168  and  _169
REMARK   56  A    between atoms: _172  and  _174
REMARK   57  A    between atoms: _174  and  _175
REMARK   58  A    between atoms: _174  and  _177
REMARK   59  A    between atoms: _177  and  _178
REMARK   60  A    between atoms: _181  and  _183
REMARK   61  A    between atoms: _183  and  _184
REMARK   62  A    between atoms: _183  and  _186
REMARK   63  A    between atoms: _186  and  _187
REMARK   64  A    between atoms: _188  and  ZN_403
REMARK   65  A    between atoms: _192  and  _194
REMARK   66  A    between atoms: _194  and  _195
REMARK   67  A    between atoms: _194  and  _197
REMARK   68  A    between atoms: _197  and  _198
REMARK   69  A    between atoms: _201  and  _203
REMARK   70  A    between atoms: _203  and  _204
REMARK   71  A    between atoms: _203  and  _206
REMARK   72  A    between atoms: _209  and  _211
REMARK   73  A    between atoms: _211  and  _212
REMARK   74  A    between atoms: _211  and  _214
REMARK   75  A    between atoms: _214  and  _215
REMARK   76  A    between atoms: _220  and  _222
REMARK   77  A    between atoms: _222  and  _223
REMARK   78  A    between atoms: _222  and  _225
REMARK   79  A    between atoms: _225  and  _226
REMARK   80  A    between atoms: _232  and  _234
REMARK   81  A    between atoms: _234  and  _235
REMARK   82  A    between atoms: _234  and  _237
REMARK   83  A    between atoms: _240  and  _242
REMARK   84  A    between atoms: _242  and  _243
REMARK   85  A    between atoms: _242  and  _245
REMARK   86  A    between atoms: _245  and  _246
REMARK   87  A    between atoms: _249  and  _251
REMARK   88  A    between atoms: _251  and  _252
REMARK   89  A    between atoms: _255  and  _257
REMARK   90  A    between atoms: _257  and  _258
REMARK   91  A    between atoms: _257  and  _260
REMARK   92  A    between atoms: _263  and  _265
REMARK   93  A    between atoms: _265  and  _266
REMARK   94  A    between atoms: _265  and  _268
REMARK   95  A    between atoms: _268  and  _269
REMARK   96  A    between atoms: _272  and  _274
REMARK   97  A    between atoms: _274  and  _275
REMARK   98  A    between atoms: _277  and  _279
REMARK   99  A    between atoms: _279  and  _280
REMARK  100  A    between atoms: _279  and  _282
REMARK  101  A    between atoms: _282  and  _283
REMARK  102  A    between atoms: _285  and  _287
REMARK  103  A    between atoms: _287  and  _288
REMARK  104  A    between atoms: _287  and  _290
REMARK  105  A    between atoms: _290  and  _291
REMARK  106  A    between atoms: _294  and  _296
REMARK  107  A    between atoms: _296  and  _297
REMARK  108  A    between atoms: _296  and  _299
REMARK  109  A    between atoms: _299  and  _300
REMARK  110  A    between atoms: _303  and  _305
REMARK  111  A    between atoms: _305  and  _306
REMARK  112  A    between atoms: _305  and  _308
REMARK  113  A    between atoms: _308  and  _309
REMARK  114  A    between atoms: _313  and  _314
REMARK  115  A    between atoms: _320  and  _321
REMARK  116  A    between atoms: _326  and  _328
REMARK  117  A    between atoms: _328  and  _329
REMARK  118  A    between atoms: _328  and  _331
REMARK  119  A    between atoms: _331  and  _332
REMARK  120  A    between atoms: _335  and  _337
REMARK  121  A    between atoms: _337  and  _338
REMARK  122  A    between atoms: _337  and  _340
REMARK  123  A    between atoms: _340  and  _341
REMARK  124  A    between atoms: _344  and  _346
REMARK  125  A    between atoms: _346  and  _347
REMARK  126  A    between atoms: _346  and  _349
REMARK  127  A    between atoms: _351  and  _353
REMARK  128  A    between atoms: _353  and  _354
REMARK  129  A    between atoms: _353  and  _356
REMARK  130  A    between atoms: _359  and  _361
REMARK  131  A    between atoms: _361  and  _362
REMARK  132  A    between atoms: _361  and  _364
REMARK  133  A    between atoms: _364  and  _365
REMARK  134  A    between atoms: _375  and  _377
REMARK  135  A    between atoms: _377  and  _378
REMARK  136  A    between atoms: _377  and  _380
REMARK  137  A    between atoms: _380  and  _381
REMARK  138  A    between atoms: _386  and  _388
REMARK  139  A    between atoms: _388  and  _389
REMARK  140  A    between atoms: _388  and  _391
REMARK  141  A    between atoms: _391  and  _392
REMARK  142  A    between atoms: _392  and  _393
REMARK  143  A    between atoms: _393  and  _394
REMARK                            x       y       z     vdW  Elec       q    Type
REMARK                         _______ _______ _______ _____ _____    ______ ____
ROOT
ATOM      1  O   HOH     1      20.224   3.058  11.762  0.00  0.00    +0.000 OA
ENDROOT
TORSDOF 0
REMARK  Name = ../refined-set-2016/2wej/2wej_pocket.pdb
REMARK  143 active torsions:
REMARK  status: ('A' for Active; 'I' for Inactive)
REMARK    1  A    between atoms: _1  and  _3
REMARK    2  A    between atoms: _3  and  _4
REMARK    3  A    between atoms: _3  and  _6
REMARK    4  A    between atoms: _6  and  _7
REMARK    5  A    between atoms: _17  and  _19
REMARK    6  A    between atoms: _19  and  _20
REMARK    7  A    between atoms: _19  and  _22
REMARK    8  A    between atoms: _22  and  _23
REMARK    9  A    between atoms: _28  and  _29
REMARK   10  A    between atoms: _31  and  _33
REMARK   11  A    between atoms: _33  and  _34
REMARK   12  A    between atoms: _33  and  _36
REMARK   13  A    between atoms: _36  and  _37
REMARK   14  A    between atoms: _40  and  _41
REMARK   15  A    between atoms: _46  and  _48
REMARK   16  A    between atoms: _48  and  _49
REMARK   17  A    between atoms: _48  and  _51
REMARK   18  A    between atoms: _51  and  _52
REMARK   19  A    between atoms: _57  and  _59
REMARK   20  A    between atoms: _59  and  _60
REMARK   21  A    between atoms: _63  and  _65
REMARK   22  A    between atoms: _65  and  _66
REMARK   23  A    between atoms: _65  and  _68
REMARK   24  A    between atoms: _68  and  _69
REMARK   25  A    between atoms: _74  and  _76
REMARK   26  A    between atoms: _76  and  _77
REMARK   27  A    between atoms: _76  and  _79
REMARK   28  A    between atoms: _79  and  _80
REMARK   29  A    between atoms: _83  and  _85
REMARK   30  A    between atoms: _85  and  _86
REMARK   31  A    between atoms: _85  and  _88
REMARK   32  A    between atoms: _88  and  _89
REMARK   33  A    between atoms: _89  and  _90
REMARK   34  A    between atoms: _95  and  _97
REMARK   35  A    between atoms: _97  and  _98
REMARK   36  A    between atoms: _97  and  _100
REMARK   37  A    between atoms: _100  and  _101
REMARK   38  A    between atoms: _107  and  _109
REMARK   39  A    between atoms: _120  and  _123
REMARK   40  A    between atoms: _123  and  _124
REMARK   41  A    between atoms: _132  and  _133
REMARK   42  A    between atoms: _141  and  _143
REMARK   43  A    between atoms: _143  and  _144
REMARK   44  A    between atoms: _143  and  _146
REMARK   45  A    between atoms: _146  and  _147
REMARK   46  A    between atoms: _147  and  _148
REMARK   47  A    between atoms: _151  and  _153
REMARK   48  A    between atoms: _153  and  _154
REMARK   49  A    between atoms: _153  and  _156
REMARK   50  A    between atoms: _156  and  _157
REMARK   51  A    between atoms: _162  and  _164
REMARK   52  A    between atoms: _164  and  _165
REMARK   53  A    between atoms: _164  and  _167
REMARK   54  A    between atoms: _167  and  _168
REMARK   55  A    between atoms: _168  and  _169
REMARK   56  A    between atoms: _172  and  _174
REMARK   57  A    between atoms: _174  and  _175
REMARK   58  A    between atoms: _174  and  _177
REMARK   59  A    between atoms: _177  and  _178
REMARK   60  A    between atoms: _181  and  _183
REMARK   61  A    between atoms: _183  and  _184
REMARK   62  A    between atoms: _183  and  _186
REMARK   63  A    between atoms: _186  and  _187
REMARK   64  A    between atoms: _188  and  ZN_403
REMARK   65  A    between atoms: _192  and  _194
REMARK   66  A    between atoms: _194  and  _195
REMARK   67  A    between atoms: _194  and  _197
REMARK   68  A    between atoms: _197  and  _198
REMARK   69  A    between atoms: _201  and  _203
REMARK   70  A    between atoms: _203  and  _204
REMARK   71  A    between atoms: _203  and  _206
REMARK   72  A    between atoms: _209  and  _211
REMARK   73  A    between atoms: _211  and  _212
REMARK   74  A    between atoms: _211  and  _214
REMARK   75  A    between atoms: _214  and  _215
REMARK   76  A    between atoms: _220  and  _222
REMARK   77  A    between atoms: _222  and  _223
REMARK   78  A    between atoms: _222  and  _225
REMARK   79  A    between atoms: _225  and  _226
REMARK   80  A    between atoms: _232  and  _234
REMARK   81  A    between atoms: _234  and  _235
REMARK   82  A    between atoms: _234  and  _237
REMARK   83  A    between atoms: _240  and  _242
REMARK   84  A    between atoms: _242  and  _243
REMARK   85  A    between atoms: _242  and  _245
REMARK   86  A    between atoms: _245  and  _246
REMARK   87  A    between atoms: _249  and  _251
REMARK   88  A    between atoms: _251  and  _252
REMARK   89  A    between atoms: _255  and  _257
REMARK   90  A    between atoms: _257  and  _258
REMARK   91  A    between atoms: _257  and  _260
REMARK   92  A    between atoms: _263  and  _265
REMARK   93  A    between atoms: _265  and  _266
REMARK   94  A    between atoms: _265  and  _268
REMARK   95  A    between atoms: _268  and  _269
REMARK   96  A    between atoms: _272  and  _274
REMARK   97  A    between atoms: _274  and  _275
REMARK   98  A    between atoms: _277  and  _279
REMARK   99  A    between atoms: _279  and  _280
REMARK  100  A    between atoms: _279  and  _282
REMARK  101  A    between atoms: _282  and  _283
REMARK  102  A    between atoms: _285  and  _287
REMARK  103  A    between atoms: _287  and  _288
REMARK  104  A    between atoms: _287  and  _290
REMARK  105  A    between atoms: _290  and  _291
REMARK  106  A    between atoms: _294  and  _296
REMARK  107  A    between atoms: _296  and  _297
REMARK  108  A    between atoms: _296  and  _299
REMARK  109  A    between atoms: _299  and  _300
REMARK  110  A    between atoms: _303  and  _305
REMARK  111  A    between atoms: _305  and  _306
REMARK  112  A    between atoms: _305  and  _308
REMARK  113  A    between atoms: _308  and  _309
REMARK  114  A    between atoms: _313  and  _314
REMARK  115  A    between atoms: _320  and  _321
REMARK  116  A    between atoms: _326  and  _328
REMARK  117  A    between atoms: _328  and  _329
REMARK  118  A    between atoms: _328  and  _331
REMARK  119  A    between atoms: _331  and  _332
REMARK  120  A    between atoms: _335  and  _337
REMARK  121  A    between atoms: _337  and  _338
REMARK  122  A    between atoms: _337  and  _340
REMARK  123  A    between atoms: _340  and  _341
REMARK  124  A    between atoms: _344  and  _346
REMARK  125  A    between atoms: _346  and  _347
REMARK  126  A    between atoms: _346  and  _349
REMARK  127  A    between atoms: _351  and  _353
REMARK  128  A    between atoms: _353  and  _354
REMARK  129  A    between atoms: _353  and  _356
REMARK  130  A    between atoms: _359  and  _361
REMARK  131  A    between atoms: _361  and  _362
REMARK  132  A    between atoms: _361  and  _364
REMARK  133  A    between atoms: _364  and  _365
REMARK  134  A    between atoms: _375  and  _377
REMARK  135  A    between atoms: _377  and  _378
REMARK  136  A    between atoms: _377  and  _380
REMARK  137  A    between atoms: _380  and  _381
REMARK  138  A    between atoms: _386  and  _388
REMARK  139  A    between atoms: _388  and  _389
REMARK  140  A    between atoms: _388  and  _391
REMARK  141  A    between atoms: _391  and  _392
REMARK  142  A    between atoms: _392  and  _393
REMARK  143  A    between atoms: _393  and  _394
REMARK                            x       y       z     vdW  Elec       q    Type
REMARK                         _______ _______ _______ _____ _____    ______ ____
ROOT
ATOM      1  O   HOH     1      17.876   6.680  10.131  0.00  0.00    +0.000 OA
ENDROOT
TORSDOF 0
