REMARK  Name = ../refined-set-2016/4cd0/4cd0_pocket.pdb
REMARK  200 active torsions:
REMARK  status: ('A' for Active; 'I' for Inactive)
REMARK    1  A    between atoms: _1  and  _3
REMARK    2  A    between atoms: _3  and  _4
REMARK    3  A    between atoms: _3  and  _6
REMARK    4  A    between atoms: _6  and  _7
REMARK    5  A    between atoms: _7  and  _8
REMARK    6  A    between atoms: _8  and  _9
REMARK    7  A    between atoms: _18  and  _20
REMARK    8  A    between atoms: _20  and  _21
REMARK    9  A    between atoms: _23  and  _25
REMARK   10  A    between atoms: _25  and  _26
REMARK   11  A    between atoms: _25  and  _28
REMARK   12  A    between atoms: _28  and  _29
REMARK   13  A    between atoms: _32  and  _34
REMARK   14  A    between atoms: _34  and  _35
REMARK   15  A    between atoms: _37  and  _39
REMARK   16  A    between atoms: _39  and  _40
REMARK   17  A    between atoms: _39  and  _42
REMARK   18  A    between atoms: _42  and  _43
REMARK   19  A    between atoms: _48  and  _50
REMARK   20  A    between atoms: _50  and  _51
REMARK   21  A    between atoms: _53  and  _55
REMARK   22  A    between atoms: _55  and  _56
REMARK   23  A    between atoms: _59  and  _61
REMARK   24  A    between atoms: _61  and  _62
REMARK   25  A    between atoms: _61  and  _64
REMARK   26  A    between atoms: _64  and  _65
REMARK   27  A    between atoms: _71  and  _73
REMARK   28  A    between atoms: _73  and  _74
REMARK   29  A    between atoms: _76  and  _78
REMARK   30  A    between atoms: _78  and  _79
REMARK   31  A    between atoms: _78  and  _81
REMARK   32  A    between atoms: _81  and  _82
REMARK   33  A    between atoms: _82  and  _83
REMARK   34  A    between atoms: _86  and  _88
REMARK   35  A    between atoms: _88  and  _89
REMARK   36  A    between atoms: _88  and  _91
REMARK   37  A    between atoms: _94  and  _96
REMARK   38  A    between atoms: _96  and  _97
REMARK   39  A    between atoms: _96  and  _99
REMARK   40  A    between atoms: _99  and  _100
REMARK   41  A    between atoms: _105  and  _106
REMARK   42  A    between atoms: _108  and  _110
REMARK   43  A    between atoms: _110  and  _111
REMARK   44  A    between atoms: _110  and  _113
REMARK   45  A    between atoms: _113  and  _114
REMARK   46  A    between atoms: _114  and  _115
REMARK   47  A    between atoms: _118  and  _120
REMARK   48  A    between atoms: _120  and  _121
REMARK   49  A    between atoms: _120  and  _123
REMARK   50  A    between atoms: _126  and  _128
REMARK   51  A    between atoms: _128  and  _129
REMARK   52  A    between atoms: _132  and  _134
REMARK   53  A    between atoms: _134  and  _135
REMARK   54  A    between atoms: _134  and  _137
REMARK   55  A    between atoms: _140  and  _142
REMARK   56  A    between atoms: _142  and  _143
REMARK   57  A    between atoms: _142  and  _145
REMARK   58  A    between atoms: _145  and  _146
REMARK   59  A    between atoms: _146  and  _147
REMARK   60  A    between atoms: _147  and  _148
REMARK   61  A    between atoms: _148  and  _149
REMARK   62  A    between atoms: _153  and  _155
REMARK   63  A    between atoms: _155  and  _156
REMARK   64  A    between atoms: _155  and  _158
REMARK   65  A    between atoms: _158  and  _159
REMARK   66  A    between atoms: _162  and  _164
REMARK   67  A    between atoms: _164  and  _165
REMARK   68  A    between atoms: _164  and  _167
REMARK   69  A    between atoms: _167  and  _168
REMARK   70  A    between atoms: _168  and  _169
REMARK   71  A    between atoms: _172  and  _174
REMARK   72  A    between atoms: _174  and  _175
REMARK   73  A    between atoms: _174  and  _177
REMARK   74  A    between atoms: _180  and  _182
REMARK   75  A    between atoms: _182  and  _183
REMARK   76  A    between atoms: _182  and  _185
REMARK   77  A    between atoms: _185  and  _186
REMARK   78  A    between atoms: _186  and  _187
REMARK   79  A    between atoms: _187  and  _188
REMARK   80  A    between atoms: _197  and  _199
REMARK   81  A    between atoms: _199  and  _200
REMARK   82  A    between atoms: _199  and  _202
REMARK   83  A    between atoms: _202  and  _203
REMARK   84  A    between atoms: _206  and  _208
REMARK   85  A    between atoms: _208  and  _209
REMARK   86  A    between atoms: _208  and  _211
REMARK   87  A    between atoms: _211  and  _212
REMARK   88  A    between atoms: _215  and  _217
REMARK   89  A    between atoms: _217  and  _218
REMARK   90  A    between atoms: _217  and  _220
REMARK   91  A    between atoms: _220  and  _221
REMARK   92  A    between atoms: _221  and  _222
REMARK   93  A    between atoms: _224  and  _226
REMARK   94  A    between atoms: _226  and  _227
REMARK   95  A    between atoms: _226  and  _229
REMARK   96  A    between atoms: _229  and  _230
REMARK   97  A    between atoms: _230  and  _231
REMARK   98  A    between atoms: _234  and  _236
REMARK   99  A    between atoms: _236  and  _237
REMARK  100  A    between atoms: _236  and  _239
REMARK  101  A    between atoms: _239  and  _240
REMARK  102  A    between atoms: _243  and  _245
REMARK  103  A    between atoms: _245  and  _246
REMARK  104  A    between atoms: _245  and  _248
REMARK  105  A    between atoms: _248  and  _249
REMARK  106  A    between atoms: _249  and  _250
REMARK  107  A    between atoms: _252  and  _254
REMARK  108  A    between atoms: _254  and  _255
REMARK  109  A    between atoms: _258  and  _260
REMARK  110  A    between atoms: _260  and  _261
REMARK  111  A    between atoms: _263  and  _265
REMARK  112  A    between atoms: _265  and  _266
REMARK  113  A    between atoms: _268  and  _270
REMARK  114  A    between atoms: _270  and  _271
REMARK  115  A    between atoms: _270  and  _273
REMARK  116  A    between atoms: _273  and  _274
REMARK  117  A    between atoms: _277  and  _279
REMARK  118  A    between atoms: _279  and  _280
REMARK  119  A    between atoms: _279  and  _282
REMARK  120  A    between atoms: _282  and  _283
REMARK  121  A    between atoms: _286  and  _288
REMARK  122  A    between atoms: _288  and  _289
REMARK  123  A    between atoms: _288  and  _291
REMARK  124  A    between atoms: _291  and  _292
REMARK  125  A    between atoms: _292  and  _293
REMARK  126  A    between atoms: _293  and  _294
REMARK  127  A    between atoms: _294  and  _295
REMARK  128  A    between atoms: _299  and  _301
REMARK  129  A    between atoms: _301  and  _302
REMARK  130  A    between atoms: _301  and  _304
REMARK  131  A    between atoms: _304  and  _305
REMARK  132  A    between atoms: _307  and  _309
REMARK  133  A    between atoms: _309  and  _310
REMARK  134  A    between atoms: _309  and  _312
REMARK  135  A    between atoms: _312  and  _313
REMARK  136  A    between atoms: _319  and  _321
REMARK  137  A    between atoms: _321  and  _322
REMARK  138  A    between atoms: _321  and  _324
REMARK  139  A    between atoms: _324  and  _325
REMARK  140  A    between atoms: _328  and  _330
REMARK  141  A    between atoms: _330  and  _331
REMARK  142  A    between atoms: _330  and  _333
REMARK  143  A    between atoms: _333  and  _334
REMARK  144  A    between atoms: _334  and  _335
REMARK  145  A    between atoms: _338  and  _340
REMARK  146  A    between atoms: _340  and  _341
REMARK  147  A    between atoms: _340  and  _343
REMARK  148  A    between atoms: _343  and  _344
REMARK  149  A    between atoms: _349  and  _351
REMARK  150  A    between atoms: _351  and  _352
REMARK  151  A    between atoms: _355  and  _357
REMARK  152  A    between atoms: _357  and  _358
REMARK  153  A    between atoms: _361  and  _363
REMARK  154  A    between atoms: _363  and  _364
REMARK  155  A    between atoms: _363  and  _366
REMARK  156  A    between atoms: _366  and  _367
REMARK  157  A    between atoms: _367  and  _368
REMARK  158  A    between atoms: _368  and  _369
REMARK  159  A    between atoms: _378  and  _380
REMARK  160  A    between atoms: _380  and  _381
REMARK  161  A    between atoms: _380  and  _383
REMARK  162  A    between atoms: _383  and  _384
REMARK  163  A    between atoms: _389  and  _391
REMARK  164  A    between atoms: _391  and  _392
REMARK  165  A    between atoms: _391  and  _394
REMARK  166  A    between atoms: _396  and  _398
REMARK  167  A    between atoms: _398  and  _399
REMARK  168  A    between atoms: _398  and  _401
REMARK  169  A    between atoms: _401  and  _402
REMARK  170  A    between atoms: _405  and  _407
REMARK  171  A    between atoms: _407  and  _408
REMARK  172  A    between atoms: _407  and  _410
REMARK  173  A    between atoms: _410  and  _411
REMARK  174  A    between atoms: _414  and  _416
REMARK  175  A    between atoms: _416  and  _417
REMARK  176  A    between atoms: _416  and  _419
REMARK  177  A    between atoms: _419  and  _420
REMARK  178  A    between atoms: _423  and  _425
REMARK  179  A    between atoms: _425  and  _426
REMARK  180  A    between atoms: _425  and  _428
REMARK  181  A    between atoms: _428  and  _429
REMARK  182  A    between atoms: _429  and  _430
REMARK  183  A    between atoms: _430  and  _431
REMARK  184  A    between atoms: _431  and  _432
REMARK  185  A    between atoms: _436  and  _438
REMARK  186  A    between atoms: _438  and  _439
REMARK  187  A    between atoms: _438  and  _441
REMARK  188  A    between atoms: _441  and  _442
REMARK  189  A    between atoms: _445  and  _447
REMARK  190  A    between atoms: _447  and  _448
REMARK  191  A    between atoms: _450  and  _452
REMARK  192  A    between atoms: _452  and  _453
REMARK  193  A    between atoms: _452  and  _455
REMARK  194  A    between atoms: _455  and  _456
REMARK  195  A    between atoms: _459  and  _461
REMARK  196  A    between atoms: _461  and  _462
REMARK  197  A    between atoms: _461  and  _464
REMARK  198  A    between atoms: _464  and  _465
REMARK  199  A    between atoms: _471  and  _473
REMARK  200  A    between atoms: _473  and  _474
REMARK                            x       y       z     vdW  Elec       q    Type
REMARK                         _______ _______ _______ _____ _____    ______ ____
ROOT
ATOM      1  C   ALA A   7     -40.064 -14.486  52.068  0.00  0.00    +0.241 C 
ATOM      2  N   PHE A   8     -40.277 -13.602  53.037  0.00  0.00    -0.297 N 
ATOM      3  H   PHE A   8     -40.657 -13.929  53.948  0.00  0.00    +0.150 HD
ATOM      4  O   ALA A   7     -39.630 -14.178  50.957  0.00  0.00    -0.273 OA
ENDROOT
BRANCH   1   5
ATOM      5  CA  ALA A   7     -40.386 -15.933  52.411  0.00  0.00    +0.149 C 
ATOM      6  CB  ALA A   7     -41.784 -16.026  53.018  0.00  0.00    +0.031 C 
BRANCH   5   8
ATOM      7  C   GLY A   6     -38.124 -16.589  53.002  0.00  0.00    +0.243 C 
ATOM      8  N   ALA A   7     -39.397 -16.440  53.353  0.00  0.00    -0.297 N 
ATOM      9  H   ALA A   7     -39.693 -16.690  54.318  0.00  0.00    +0.150 HD
ATOM     10  O   GLY A   6     -37.717 -16.386  51.855  0.00  0.00    -0.273 OA
BRANCH   7  11
ATOM     11  CA  GLY A   6     -37.177 -17.034  54.102  0.00  0.00    +0.176 C 
BRANCH  11  13
ATOM     12  C   HIS A   5     -35.169 -17.124  52.764  0.00  0.00    +0.241 C 
ATOM     13  N   GLY A   6     -35.797 -16.668  53.844  0.00  0.00    -0.295 N 
ATOM     14  H   GLY A   6     -35.295 -16.045  54.508  0.00  0.00    +0.150 HD
ATOM     15  O   HIS A   5     -35.727 -17.806  51.901  0.00  0.00    -0.273 OA
BRANCH  12  16
ATOM     16  CA  HIS A   5     -33.694 -16.751  52.629  0.00  0.00    +0.155 C 
BRANCH  16  19
ATOM     17  C   GLY A   4     -33.208 -19.132  53.007  0.00  0.00    +0.243 C 
ATOM     18  O   GLY A   4     -34.289 -19.361  53.555  0.00  0.00    -0.273 OA
ATOM     19  N   HIS A   5     -32.828 -17.926  52.592  0.00  0.00    -0.297 N 
ATOM     20  H   HIS A   5     -31.863 -17.814  52.222  0.00  0.00    +0.150 HD
BRANCH  17  21
ATOM     21  CA  GLY A   4     -32.204 -20.242  52.780  0.00  0.00    +0.176 C 
BRANCH  21  24
ATOM     22  C   LEU A   3     -30.266 -19.757  54.113  0.00  0.00    +0.241 C 
ATOM     23  O   LEU A   3     -30.781 -20.278  55.102  0.00  0.00    -0.273 OA
ATOM     24  N   GLY A   4     -30.858 -19.730  52.927  0.00  0.00    -0.295 N 
ATOM     25  H   GLY A   4     -30.356 -19.341  52.103  0.00  0.00    +0.150 HD
BRANCH  22  26
ATOM     26  CA  LEU A   3     -28.892 -19.109  54.200  0.00  0.00    +0.149 C 
BRANCH  26  28
ATOM     27  C   GLY A   2     -27.684 -18.381  52.214  0.00  0.00    +0.243 C 
ATOM     28  N   LEU A   3     -28.646 -18.171  53.108  0.00  0.00    -0.297 N 
ATOM     29  H   LEU A   3     -29.237 -17.319  53.028  0.00  0.00    +0.150 HD
ATOM     30  O   GLY A   2     -26.995 -19.395  52.209  0.00  0.00    -0.273 OA
BRANCH  27  31
ATOM     31  CA  GLY A   2     -27.453 -17.298  51.177  0.00  0.00    +0.176 C 
BRANCH  31  34
ATOM     32  C   ARG A   1     -25.099 -16.843  51.475  0.00  0.00    +0.238 C 
ATOM     33  O   ARG A   1     -25.303 -16.278  52.550  0.00  0.00    -0.274 OA
ATOM     34  N   GLY A   2     -26.078 -17.312  50.707  0.00  0.00    -0.296 N 
ATOM     35  H   GLY A   2     -25.858 -17.691  49.764  0.00  0.00    +0.150 HD
BRANCH  32  36
ATOM     36  CA  ARG A   1     -23.682 -17.035  50.960  0.00  0.00    +0.145 C 
BRANCH  36  37
ATOM     37  N   ARG A   1     -22.799 -16.027  51.539  0.00  0.00    -0.238 NA
ATOM     38  H   ARG A   1     -23.107 -15.507  52.385  0.00  0.00    +0.142 HD
ENDBRANCH  36  37
BRANCH  36  39
ATOM     39  CB  ARG A   1     -23.198 -18.443  51.326  0.00  0.00    +0.030 C 
BRANCH  39  40
ATOM     40  CG  ARG A   1     -23.574 -18.896  52.736  0.00  0.00    +0.045 C 
BRANCH  40  41
ATOM     41  CD  ARG A   1     -22.896 -20.215  53.100  0.00  0.00    +0.174 C 
BRANCH  41  42
ATOM     42  NE  ARG A   1     -21.462 -20.033  53.305  0.00  0.00    -0.265 N 
ATOM     43  HE  ARG A   1     -21.140 -19.119  53.683  0.00  0.00    +0.259 HD
ATOM     44  CZ  ARG A   1     -20.539 -20.952  53.043  0.00  0.00    +0.342 C 
ATOM     45  NH2 ARG A   1     -19.258 -20.683  53.263  0.00  0.00    -0.292 N 
ATOM     46 HH21 ARG A   1     -18.979 -19.755  53.640  0.00  0.00    +0.255 HD
ATOM     47 HH22 ARG A   1     -18.533 -21.401  53.059  0.00  0.00    +0.255 HD
ATOM     48  NH1 ARG A   1     -20.896 -22.135  52.559  0.00  0.00    -0.292 N 
ATOM     49 HH11 ARG A   1     -21.900 -22.344  52.384  0.00  0.00    +0.255 HD
ATOM     50 HH12 ARG A   1     -20.172 -22.853  52.355  0.00  0.00    +0.255 HD
ENDBRANCH  41  42
ENDBRANCH  40  41
ENDBRANCH  39  40
ENDBRANCH  36  39
ENDBRANCH  32  36
ENDBRANCH  31  34
ENDBRANCH  27  31
ENDBRANCH  26  28
BRANCH  26  51
ATOM     51  CB  LEU A   3     -28.749 -18.402  55.549  0.00  0.00    +0.029 C 
BRANCH  51  52
ATOM     52  CG  LEU A   3     -27.321 -18.070  55.984  0.00  0.00    +0.002 C 
ATOM     53  CD2 LEU A   3     -27.348 -17.363  57.333  0.00  0.00    +0.000 C 
ATOM     54  CD1 LEU A   3     -26.500 -19.347  56.067  0.00  0.00    +0.000 C 
ENDBRANCH  51  52
ENDBRANCH  26  51
ENDBRANCH  22  26
ENDBRANCH  21  24
ENDBRANCH  17  21
ENDBRANCH  16  19
BRANCH  16  55
ATOM     55  CB  HIS A   5     -33.496 -15.934  51.351  0.00  0.00    +0.076 C 
BRANCH  55  56
ATOM     56  CG  HIS A   5     -32.181 -16.177  50.678  0.00  0.00    +0.082 A 
ATOM     57  CD2 HIS A   5     -30.948 -15.673  50.920  0.00  0.00    +0.115 A 
ATOM     58  NE2 HIS A   5     -30.090 -16.242  50.011  0.00  0.00    -0.221 NA
ATOM     59  CE1 HIS A   5     -30.773 -17.067  49.236  0.00  0.00    +0.199 A 
ATOM     60  ND1 HIS A   5     -32.037 -17.046  49.617  0.00  0.00    -0.227 NA
ENDBRANCH  55  56
ENDBRANCH  16  55
ENDBRANCH  12  16
ENDBRANCH  11  13
ENDBRANCH   7  11
ENDBRANCH   5   8
ENDBRANCH   1   5
BRANCH   2  61
ATOM     61  CA  PHE A   8     -39.991 -12.189  52.853  0.00  0.00    +0.153 C 
BRANCH  61  62
ATOM     62  C   PHE A   8     -38.588 -11.877  53.363  0.00  0.00    +0.241 C 
ATOM     63  O   PHE A   8     -38.209 -12.284  54.464  0.00  0.00    -0.273 OA
ATOM     64  N   GLY A   9     -37.820 -11.158  52.553  0.00  0.00    -0.295 N 
ATOM     65  H   GLY A   9     -38.205 -10.811  51.651  0.00  0.00    +0.150 HD
BRANCH  64  66
ATOM     66  CA  GLY A   9     -36.451 -10.852  52.914  0.00  0.00    +0.176 C 
BRANCH  66  67
ATOM     67  C   GLY A   9     -35.531 -12.048  52.770  0.00  0.00    +0.243 C 
ATOM     68  O   GLY A   9     -35.845 -13.155  53.217  0.00  0.00    -0.273 OA
ATOM     69  N   GLU A  10     -34.386 -11.820  52.138  0.00  0.00    -0.297 N 
ATOM     70  H   GLU A  10     -34.240 -10.901  51.673  0.00  0.00    +0.150 HD
BRANCH  69  71
ATOM     71  CA  GLU A  10     -33.330 -12.818  52.078  0.00  0.00    +0.149 C 
BRANCH  71  72
ATOM     72  C   GLU A  10     -32.443 -12.717  53.312  0.00  0.00    +0.241 C 
ATOM     73  O   GLU A  10     -32.304 -11.648  53.906  0.00  0.00    -0.273 OA
ATOM     74  N   VAL A  11     -31.843 -13.836  53.692  0.00  0.00    -0.297 N 
ATOM     75  H   VAL A  11     -32.073 -14.728  53.209  0.00  0.00    +0.150 HD
BRANCH  74  76
ATOM     76  CA  VAL A  11     -30.871 -13.841  54.770  0.00  0.00    +0.149 C 
BRANCH  76  77
ATOM     77  C   VAL A  11     -29.570 -14.417  54.233  0.00  0.00    +0.241 C 
ATOM     78  N   TYR A  12     -28.452 -13.795  54.586  0.00  0.00    -0.297 N 
ATOM     79  H   TYR A  12     -28.506 -12.951  55.191  0.00  0.00    +0.150 HD
ATOM     80  O   VAL A  11     -29.581 -15.408  53.508  0.00  0.00    -0.273 OA
BRANCH  78  81
ATOM     81  CA  TYR A  12     -27.152 -14.275  54.140  0.00  0.00    +0.153 C 
BRANCH  81  82
ATOM     82  C   TYR A  12     -26.232 -14.475  55.325  0.00  0.00    +0.241 C 
ATOM     83  O   TYR A  12     -26.391 -13.828  56.354  0.00  0.00    -0.273 OA
ATOM     84  N   GLU A  13     -25.274 -15.382  55.182  0.00  0.00    -0.298 N 
ATOM     85  H   GLU A  13     -25.365 -16.118  54.452  0.00  0.00    +0.150 HD
BRANCH  84  86
ATOM     86  CA  GLU A  13     -24.102 -15.356  56.034  0.00  0.00    +0.137 C 
BRANCH  86  87
ATOM     87  C   GLU A  13     -23.198 -14.271  55.466  0.00  0.00    +0.227 C 
ATOM     88  O   GLU A  13     -23.068 -14.143  54.251  0.00  0.00    -0.286 OA
ENDBRANCH  86  87
BRANCH  86  89
ATOM     89  CB  GLU A  13     -23.379 -16.704  56.012  0.00  0.00    +0.039 C 
BRANCH  89  90
ATOM     90  CG  GLU A  13     -21.967 -16.623  56.579  0.00  0.00    +0.116 C 
BRANCH  90  91
ATOM     91  CD  GLU A  13     -21.255 -17.959  56.624  0.00  0.00    +0.365 C 
ATOM     92  OE2 GLU A  13     -20.059 -17.979  56.987  0.00  0.00    -0.246 OA
ATOM     93  OE1 GLU A  13     -21.886 -18.990  56.303  0.00  0.00    -0.246 OA
ENDBRANCH  90  91
ENDBRANCH  89  90
ENDBRANCH  86  89
ENDBRANCH  84  86
ENDBRANCH  81  82
BRANCH  81  94
ATOM     94  CB  TYR A  12     -26.515 -13.271  53.176  0.00  0.00    +0.055 C 
BRANCH  94  95
ATOM     95  CG  TYR A  12     -27.334 -12.994  51.934  0.00  0.00    -0.020 A 
ATOM     96  CD2 TYR A  12     -28.341 -12.042  51.945  0.00  0.00    -0.001 A 
ATOM     97  CE2 TYR A  12     -29.078 -11.774  50.817  0.00  0.00    +0.036 A 
ATOM     98  CZ  TYR A  12     -28.819 -12.462  49.649  0.00  0.00    +0.134 A 
ATOM     99  CE1 TYR A  12     -27.828 -13.413  49.607  0.00  0.00    +0.036 A 
ATOM    100  CD1 TYR A  12     -27.089 -13.676  50.747  0.00  0.00    -0.001 A 
BRANCH  98 101
ATOM    101  OH  TYR A  12     -29.567 -12.193  48.524  0.00  0.00    -0.506 OA
ATOM    102  HH  TYR A  12     -30.230 -11.487  48.731  0.00  0.00    +0.292 HD
ENDBRANCH  98 101
ENDBRANCH  94  95
ENDBRANCH  81  94
ENDBRANCH  78  81
ENDBRANCH  76  77
BRANCH  76 103
ATOM    103  CB  VAL A  11     -31.344 -14.712  55.961  0.00  0.00    +0.027 C 
ATOM    104  CG2 VAL A  11     -30.341 -14.619  57.094  0.00  0.00    +0.002 C 
ATOM    105  CG1 VAL A  11     -32.734 -14.267  56.425  0.00  0.00    +0.002 C 
ENDBRANCH  76 103
ENDBRANCH  74  76
ENDBRANCH  71  72
BRANCH  71 106
ATOM    106  CB  GLU A  10     -32.472 -12.610  50.831  0.00  0.00    +0.041 C 
BRANCH 106 107
ATOM    107  CG  GLU A  10     -33.230 -12.716  49.524  0.00  0.00    +0.116 C 
BRANCH 107 108
ATOM    108  CD  GLU A  10     -32.331 -12.486  48.327  0.00  0.00    +0.365 C 
ATOM    109  OE2 GLU A  10     -31.909 -11.327  48.117  0.00  0.00    -0.246 OA
ATOM    110  OE1 GLU A  10     -32.041 -13.465  47.602  0.00  0.00    -0.246 OA
ENDBRANCH 107 108
ENDBRANCH 106 107
ENDBRANCH  71 106
ENDBRANCH  69  71
ENDBRANCH  66  67
ENDBRANCH  64  66
ENDBRANCH  61  62
BRANCH  61 111
ATOM    111  CB  PHE A   8     -41.021 -11.340  53.602  0.00  0.00    +0.055 C 
BRANCH 111 112
ATOM    112  CG  PHE A   8     -41.013  -9.890  53.209  0.00  0.00    -0.020 A 
ATOM    113  CD2 PHE A   8     -40.401  -8.943  54.015  0.00  0.00    -0.004 A 
ATOM    114  CE2 PHE A   8     -40.389  -7.608  53.652  0.00  0.00    -0.000 A 
ATOM    115  CZ  PHE A   8     -40.993  -7.208  52.472  0.00  0.00    -0.000 A 
ATOM    116  CE1 PHE A   8     -41.606  -8.144  51.660  0.00  0.00    -0.000 A 
ATOM    117  CD1 PHE A   8     -41.614  -9.476  52.029  0.00  0.00    -0.004 A 
ENDBRANCH 111 112
ENDBRANCH  61 111
ENDBRANCH   2  61
TORSDOF 46
REMARK  Name = ../refined-set-2016/4cd0/4cd0_pocket.pdb
REMARK  200 active torsions:
REMARK  status: ('A' for Active; 'I' for Inactive)
REMARK    1  A    between atoms: _1  and  _3
REMARK    2  A    between atoms: _3  and  _4
REMARK    3  A    between atoms: _3  and  _6
REMARK    4  A    between atoms: _6  and  _7
REMARK    5  A    between atoms: _7  and  _8
REMARK    6  A    between atoms: _8  and  _9
REMARK    7  A    between atoms: _18  and  _20
REMARK    8  A    between atoms: _20  and  _21
REMARK    9  A    between atoms: _23  and  _25
REMARK   10  A    between atoms: _25  and  _26
REMARK   11  A    between atoms: _25  and  _28
REMARK   12  A    between atoms: _28  and  _29
REMARK   13  A    between atoms: _32  and  _34
REMARK   14  A    between atoms: _34  and  _35
REMARK   15  A    between atoms: _37  and  _39
REMARK   16  A    between atoms: _39  and  _40
REMARK   17  A    between atoms: _39  and  _42
REMARK   18  A    between atoms: _42  and  _43
REMARK   19  A    between atoms: _48  and  _50
REMARK   20  A    between atoms: _50  and  _51
REMARK   21  A    between atoms: _53  and  _55
REMARK   22  A    between atoms: _55  and  _56
REMARK   23  A    between atoms: _59  and  _61
REMARK   24  A    between atoms: _61  and  _62
REMARK   25  A    between atoms: _61  and  _64
REMARK   26  A    between atoms: _64  and  _65
REMARK   27  A    between atoms: _71  and  _73
REMARK   28  A    between atoms: _73  and  _74
REMARK   29  A    between atoms: _76  and  _78
REMARK   30  A    between atoms: _78  and  _79
REMARK   31  A    between atoms: _78  and  _81
REMARK   32  A    between atoms: _81  and  _82
REMARK   33  A    between atoms: _82  and  _83
REMARK   34  A    between atoms: _86  and  _88
REMARK   35  A    between atoms: _88  and  _89
REMARK   36  A    between atoms: _88  and  _91
REMARK   37  A    between atoms: _94  and  _96
REMARK   38  A    between atoms: _96  and  _97
REMARK   39  A    between atoms: _96  and  _99
REMARK   40  A    between atoms: _99  and  _100
REMARK   41  A    between atoms: _105  and  _106
REMARK   42  A    between atoms: _108  and  _110
REMARK   43  A    between atoms: _110  and  _111
REMARK   44  A    between atoms: _110  and  _113
REMARK   45  A    between atoms: _113  and  _114
REMARK   46  A    between atoms: _114  and  _115
REMARK   47  A    between atoms: _118  and  _120
REMARK   48  A    between atoms: _120  and  _121
REMARK   49  A    between atoms: _120  and  _123
REMARK   50  A    between atoms: _126  and  _128
REMARK   51  A    between atoms: _128  and  _129
REMARK   52  A    between atoms: _132  and  _134
REMARK   53  A    between atoms: _134  and  _135
REMARK   54  A    between atoms: _134  and  _137
REMARK   55  A    between atoms: _140  and  _142
REMARK   56  A    between atoms: _142  and  _143
REMARK   57  A    between atoms: _142  and  _145
REMARK   58  A    between atoms: _145  and  _146
REMARK   59  A    between atoms: _146  and  _147
REMARK   60  A    between atoms: _147  and  _148
REMARK   61  A    between atoms: _148  and  _149
REMARK   62  A    between atoms: _153  and  _155
REMARK   63  A    between atoms: _155  and  _156
REMARK   64  A    between atoms: _155  and  _158
REMARK   65  A    between atoms: _158  and  _159
REMARK   66  A    between atoms: _162  and  _164
REMARK   67  A    between atoms: _164  and  _165
REMARK   68  A    between atoms: _164  and  _167
REMARK   69  A    between atoms: _167  and  _168
REMARK   70  A    between atoms: _168  and  _169
REMARK   71  A    between atoms: _172  and  _174
REMARK   72  A    between atoms: _174  and  _175
REMARK   73  A    between atoms: _174  and  _177
REMARK   74  A    between atoms: _180  and  _182
REMARK   75  A    between atoms: _182  and  _183
REMARK   76  A    between atoms: _182  and  _185
REMARK   77  A    between atoms: _185  and  _186
REMARK   78  A    between atoms: _186  and  _187
REMARK   79  A    between atoms: _187  and  _188
REMARK   80  A    between atoms: _197  and  _199
REMARK   81  A    between atoms: _199  and  _200
REMARK   82  A    between atoms: _199  and  _202
REMARK   83  A    between atoms: _202  and  _203
REMARK   84  A    between atoms: _206  and  _208
REMARK   85  A    between atoms: _208  and  _209
REMARK   86  A    between atoms: _208  and  _211
REMARK   87  A    between atoms: _211  and  _212
REMARK   88  A    between atoms: _215  and  _217
REMARK   89  A    between atoms: _217  and  _218
REMARK   90  A    between atoms: _217  and  _220
REMARK   91  A    between atoms: _220  and  _221
REMARK   92  A    between atoms: _221  and  _222
REMARK   93  A    between atoms: _224  and  _226
REMARK   94  A    between atoms: _226  and  _227
REMARK   95  A    between atoms: _226  and  _229
REMARK   96  A    between atoms: _229  and  _230
REMARK   97  A    between atoms: _230  and  _231
REMARK   98  A    between atoms: _234  and  _236
REMARK   99  A    between atoms: _236  and  _237
REMARK  100  A    between atoms: _236  and  _239
REMARK  101  A    between atoms: _239  and  _240
REMARK  102  A    between atoms: _243  and  _245
REMARK  103  A    between atoms: _245  and  _246
REMARK  104  A    between atoms: _245  and  _248
REMARK  105  A    between atoms: _248  and  _249
REMARK  106  A    between atoms: _249  and  _250
REMARK  107  A    between atoms: _252  and  _254
REMARK  108  A    between atoms: _254  and  _255
REMARK  109  A    between atoms: _258  and  _260
REMARK  110  A    between atoms: _260  and  _261
REMARK  111  A    between atoms: _263  and  _265
REMARK  112  A    between atoms: _265  and  _266
REMARK  113  A    between atoms: _268  and  _270
REMARK  114  A    between atoms: _270  and  _271
REMARK  115  A    between atoms: _270  and  _273
REMARK  116  A    between atoms: _273  and  _274
REMARK  117  A    between atoms: _277  and  _279
REMARK  118  A    between atoms: _279  and  _280
REMARK  119  A    between atoms: _279  and  _282
REMARK  120  A    between atoms: _282  and  _283
REMARK  121  A    between atoms: _286  and  _288
REMARK  122  A    between atoms: _288  and  _289
REMARK  123  A    between atoms: _288  and  _291
REMARK  124  A    between atoms: _291  and  _292
REMARK  125  A    between atoms: _292  and  _293
REMARK  126  A    between atoms: _293  and  _294
REMARK  127  A    between atoms: _294  and  _295
REMARK  128  A    between atoms: _299  and  _301
REMARK  129  A    between atoms: _301  and  _302
REMARK  130  A    between atoms: _301  and  _304
REMARK  131  A    between atoms: _304  and  _305
REMARK  132  A    between atoms: _307  and  _309
REMARK  133  A    between atoms: _309  and  _310
REMARK  134  A    between atoms: _309  and  _312
REMARK  135  A    between atoms: _312  and  _313
REMARK  136  A    between atoms: _319  and  _321
REMARK  137  A    between atoms: _321  and  _322
REMARK  138  A    between atoms: _321  and  _324
REMARK  139  A    between atoms: _324  and  _325
REMARK  140  A    between atoms: _328  and  _330
REMARK  141  A    between atoms: _330  and  _331
REMARK  142  A    between atoms: _330  and  _333
REMARK  143  A    between atoms: _333  and  _334
REMARK  144  A    between atoms: _334  and  _335
REMARK  145  A    between atoms: _338  and  _340
REMARK  146  A    between atoms: _340  and  _341
REMARK  147  A    between atoms: _340  and  _343
REMARK  148  A    between atoms: _343  and  _344
REMARK  149  A    between atoms: _349  and  _351
REMARK  150  A    between atoms: _351  and  _352
REMARK  151  A    between atoms: _355  and  _357
REMARK  152  A    between atoms: _357  and  _358
REMARK  153  A    between atoms: _361  and  _363
REMARK  154  A    between atoms: _363  and  _364
REMARK  155  A    between atoms: _363  and  _366
REMARK  156  A    between atoms: _366  and  _367
REMARK  157  A    between atoms: _367  and  _368
REMARK  158  A    between atoms: _368  and  _369
REMARK  159  A    between atoms: _378  and  _380
REMARK  160  A    between atoms: _380  and  _381
REMARK  161  A    between atoms: _380  and  _383
REMARK  162  A    between atoms: _383  and  _384
REMARK  163  A    between atoms: _389  and  _391
REMARK  164  A    between atoms: _391  and  _392
REMARK  165  A    between atoms: _391  and  _394
REMARK  166  A    between atoms: _396  and  _398
REMARK  167  A    between atoms: _398  and  _399
REMARK  168  A    between atoms: _398  and  _401
REMARK  169  A    between atoms: _401  and  _402
REMARK  170  A    between atoms: _405  and  _407
REMARK  171  A    between atoms: _407  and  _408
REMARK  172  A    between atoms: _407  and  _410
REMARK  173  A    between atoms: _410  and  _411
REMARK  174  A    between atoms: _414  and  _416
REMARK  175  A    between atoms: _416  and  _417
REMARK  176  A    between atoms: _416  and  _419
REMARK  177  A    between atoms: _419  and  _420
REMARK  178  A    between atoms: _423  and  _425
REMARK  179  A    between atoms: _425  and  _426
REMARK  180  A    between atoms: _425  and  _428
REMARK  181  A    between atoms: _428  and  _429
REMARK  182  A    between atoms: _429  and  _430
REMARK  183  A    between atoms: _430  and  _431
REMARK  184  A    between atoms: _431  and  _432
REMARK  185  A    between atoms: _436  and  _438
REMARK  186  A    between atoms: _438  and  _439
REMARK  187  A    between atoms: _438  and  _441
REMARK  188  A    between atoms: _441  and  _442
REMARK  189  A    between atoms: _445  and  _447
REMARK  190  A    between atoms: _447  and  _448
REMARK  191  A    between atoms: _450  and  _452
REMARK  192  A    between atoms: _452  and  _453
REMARK  193  A    between atoms: _452  and  _455
REMARK  194  A    between atoms: _455  and  _456
REMARK  195  A    between atoms: _459  and  _461
REMARK  196  A    between atoms: _461  and  _462
REMARK  197  A    between atoms: _461  and  _464
REMARK  198  A    between atoms: _464  and  _465
REMARK  199  A    between atoms: _471  and  _473
REMARK  200  A    between atoms: _473  and  _474
REMARK                            x       y       z     vdW  Elec       q    Type
REMARK                         _______ _______ _______ _____ _____    ______ ____
ROOT
ATOM      1  C   VAL A   3     -29.047 -10.609  56.828  0.00  0.00    +0.241 C 
ATOM      2  N   LYS A   4     -29.964  -9.888  57.456  0.00  0.00    -0.297 N 
ATOM      3  H   LYS A   4     -29.691  -9.306  58.273  0.00  0.00    +0.150 HD
ATOM      4  O   VAL A   3     -29.315 -11.366  55.899  0.00  0.00    -0.273 OA
ENDROOT
BRANCH   2   5
ATOM      5  CA  LYS A   4     -31.345  -9.903  57.014  0.00  0.00    +0.149 C 
BRANCH   5   6
ATOM      6  C   LYS A   4     -31.573  -8.698  56.112  0.00  0.00    +0.241 C 
ATOM      7  O   LYS A   4     -31.261  -7.567  56.484  0.00  0.00    -0.273 OA
ATOM      8  N   THR A   5     -32.106  -8.948  54.921  0.00  0.00    -0.296 N 
ATOM      9  H   THR A   5     -32.416  -9.915  54.697  0.00  0.00    +0.150 HD
BRANCH   8  10
ATOM     10  CA  THR A   5     -32.267  -7.901  53.922  0.00  0.00    +0.164 C 
BRANCH  10  11
ATOM     11  CB  THR A   5     -31.765  -8.357  52.542  0.00  0.00    +0.136 C 
ATOM     12  CG2 THR A   5     -30.321  -8.809  52.624  0.00  0.00    +0.034 C 
BRANCH  11  13
ATOM     13  OG1 THR A   5     -32.573  -9.445  52.076  0.00  0.00    -0.382 OA
ATOM     14  HG1 THR A   5     -32.511 -10.198  52.716  0.00  0.00    +0.210 HD
ENDBRANCH  11  13
ENDBRANCH  10  11
BRANCH  10  15
ATOM     15  C   THR A   5     -33.726  -7.498  53.770  0.00  0.00    +0.229 C 
ATOM     16  O   THR A   5     -34.631  -8.322  53.919  0.00  0.00    -0.286 OA
ENDBRANCH  10  15
ENDBRANCH   8  10
ENDBRANCH   5   6
BRANCH   5  17
ATOM     17  CB  LYS A   4     -32.289  -9.863  58.225  0.00  0.00    +0.029 C 
BRANCH  17  18
ATOM     18  CG  LYS A   4     -33.680 -10.398  57.930  0.00  0.00    +0.000 C 
BRANCH  18  19
ATOM     19  CD  LYS A   4     -34.367 -10.903  59.193  0.00  0.00    -0.024 C 
BRANCH  19  20
ATOM     20  CE  LYS A   4     -35.727 -11.507  58.870  0.00  0.00    -0.086 C 
BRANCH  20  21
ATOM     21  NZ  LYS A   4     -36.475 -11.898  60.098  0.00  0.00    +0.380 N 
ATOM     22  HZ1 LYS A   4     -36.627 -11.058  60.692  0.00  0.00    -0.089 HD
ATOM     23  HZ2 LYS A   4     -35.925 -12.604  60.628  0.00  0.00    -0.089 HD
ATOM     24  HZ3 LYS A   4     -37.394 -12.304  59.828  0.00  0.00    -0.089 HD
ENDBRANCH  20  21
ENDBRANCH  19  20
ENDBRANCH  18  19
ENDBRANCH  17  18
ENDBRANCH   5  17
ENDBRANCH   2   5
BRANCH   1  25
ATOM     25  CA  VAL A   3     -27.621 -10.446  57.310  0.00  0.00    +0.149 C 
BRANCH  25  28
ATOM     26  C   ALA A   2     -26.816 -11.814  59.134  0.00  0.00    +0.241 C 
ATOM     27  O   ALA A   2     -26.986 -10.907  59.942  0.00  0.00    -0.273 OA
ATOM     28  N   VAL A   3     -27.153 -11.705  57.857  0.00  0.00    -0.297 N 
ATOM     29  H   VAL A   3     -27.081 -12.536  57.237  0.00  0.00    +0.150 HD
BRANCH  26  30
ATOM     30  CA  ALA A   2     -26.179 -13.134  59.558  0.00  0.00    +0.149 C 
ATOM     31  CB  ALA A   2     -27.199 -14.018  60.265  0.00  0.00    +0.031 C 
BRANCH  30  33
ATOM     32  C   VAL A   1     -23.821 -12.804  60.001  0.00  0.00    +0.238 C 
ATOM     33  N   ALA A   2     -25.071 -12.831  60.449  0.00  0.00    -0.297 N 
ATOM     34  H   ALA A   2     -25.260 -12.632  61.452  0.00  0.00    +0.150 HD
ATOM     35  O   VAL A   1     -23.482 -13.321  58.941  0.00  0.00    -0.274 OA
BRANCH  32  36
ATOM     36  CA  VAL A   1     -22.812 -12.083  60.881  0.00  0.00    +0.145 C 
BRANCH  36  37
ATOM     37  CB  VAL A   1     -22.930 -10.573  60.576  0.00  0.00    +0.025 C 
ATOM     38  CG2 VAL A   1     -22.005  -9.779  61.488  0.00  0.00    +0.002 C 
ATOM     39  CG1 VAL A   1     -22.598 -10.314  59.116  0.00  0.00    +0.002 C 
ENDBRANCH  36  37
BRANCH  36  40
ATOM     40  N   VAL A   1     -21.445 -12.559  60.695  0.00  0.00    -0.238 NA
ATOM     41  H   VAL A   1     -21.092 -12.748  59.735  0.00  0.00    +0.142 HD
ENDBRANCH  36  40
ENDBRANCH  32  36
ENDBRANCH  30  33
ENDBRANCH  26  30
ENDBRANCH  25  28
BRANCH  25  42
ATOM     42  CB  VAL A   3     -26.755  -9.986  56.116  0.00  0.00    +0.027 C 
ATOM     43  CG2 VAL A   3     -25.286  -9.938  56.515  0.00  0.00    +0.002 C 
ATOM     44  CG1 VAL A   3     -27.223  -8.629  55.638  0.00  0.00    +0.002 C 
ENDBRANCH  25  42
ENDBRANCH   1  25
TORSDOF 19
REMARK  Name = ../refined-set-2016/4cd0/4cd0_pocket.pdb
REMARK  200 active torsions:
REMARK  status: ('A' for Active; 'I' for Inactive)
REMARK    1  A    between atoms: _1  and  _3
REMARK    2  A    between atoms: _3  and  _4
REMARK    3  A    between atoms: _3  and  _6
REMARK    4  A    between atoms: _6  and  _7
REMARK    5  A    between atoms: _7  and  _8
REMARK    6  A    between atoms: _8  and  _9
REMARK    7  A    between atoms: _18  and  _20
REMARK    8  A    between atoms: _20  and  _21
REMARK    9  A    between atoms: _23  and  _25
REMARK   10  A    between atoms: _25  and  _26
REMARK   11  A    between atoms: _25  and  _28
REMARK   12  A    between atoms: _28  and  _29
REMARK   13  A    between atoms: _32  and  _34
REMARK   14  A    between atoms: _34  and  _35
REMARK   15  A    between atoms: _37  and  _39
REMARK   16  A    between atoms: _39  and  _40
REMARK   17  A    between atoms: _39  and  _42
REMARK   18  A    between atoms: _42  and  _43
REMARK   19  A    between atoms: _48  and  _50
REMARK   20  A    between atoms: _50  and  _51
REMARK   21  A    between atoms: _53  and  _55
REMARK   22  A    between atoms: _55  and  _56
REMARK   23  A    between atoms: _59  and  _61
REMARK   24  A    between atoms: _61  and  _62
REMARK   25  A    between atoms: _61  and  _64
REMARK   26  A    between atoms: _64  and  _65
REMARK   27  A    between atoms: _71  and  _73
REMARK   28  A    between atoms: _73  and  _74
REMARK   29  A    between atoms: _76  and  _78
REMARK   30  A    between atoms: _78  and  _79
REMARK   31  A    between atoms: _78  and  _81
REMARK   32  A    between atoms: _81  and  _82
REMARK   33  A    between atoms: _82  and  _83
REMARK   34  A    between atoms: _86  and  _88
REMARK   35  A    between atoms: _88  and  _89
REMARK   36  A    between atoms: _88  and  _91
REMARK   37  A    between atoms: _94  and  _96
REMARK   38  A    between atoms: _96  and  _97
REMARK   39  A    between atoms: _96  and  _99
REMARK   40  A    between atoms: _99  and  _100
REMARK   41  A    between atoms: _105  and  _106
REMARK   42  A    between atoms: _108  and  _110
REMARK   43  A    between atoms: _110  and  _111
REMARK   44  A    between atoms: _110  and  _113
REMARK   45  A    between atoms: _113  and  _114
REMARK   46  A    between atoms: _114  and  _115
REMARK   47  A    between atoms: _118  and  _120
REMARK   48  A    between atoms: _120  and  _121
REMARK   49  A    between atoms: _120  and  _123
REMARK   50  A    between atoms: _126  and  _128
REMARK   51  A    between atoms: _128  and  _129
REMARK   52  A    between atoms: _132  and  _134
REMARK   53  A    between atoms: _134  and  _135
REMARK   54  A    between atoms: _134  and  _137
REMARK   55  A    between atoms: _140  and  _142
REMARK   56  A    between atoms: _142  and  _143
REMARK   57  A    between atoms: _142  and  _145
REMARK   58  A    between atoms: _145  and  _146
REMARK   59  A    between atoms: _146  and  _147
REMARK   60  A    between atoms: _147  and  _148
REMARK   61  A    between atoms: _148  and  _149
REMARK   62  A    between atoms: _153  and  _155
REMARK   63  A    between atoms: _155  and  _156
REMARK   64  A    between atoms: _155  and  _158
REMARK   65  A    between atoms: _158  and  _159
REMARK   66  A    between atoms: _162  and  _164
REMARK   67  A    between atoms: _164  and  _165
REMARK   68  A    between atoms: _164  and  _167
REMARK   69  A    between atoms: _167  and  _168
REMARK   70  A    between atoms: _168  and  _169
REMARK   71  A    between atoms: _172  and  _174
REMARK   72  A    between atoms: _174  and  _175
REMARK   73  A    between atoms: _174  and  _177
REMARK   74  A    between atoms: _180  and  _182
REMARK   75  A    between atoms: _182  and  _183
REMARK   76  A    between atoms: _182  and  _185
REMARK   77  A    between atoms: _185  and  _186
REMARK   78  A    between atoms: _186  and  _187
REMARK   79  A    between atoms: _187  and  _188
REMARK   80  A    between atoms: _197  and  _199
REMARK   81  A    between atoms: _199  and  _200
REMARK   82  A    between atoms: _199  and  _202
REMARK   83  A    between atoms: _202  and  _203
REMARK   84  A    between atoms: _206  and  _208
REMARK   85  A    between atoms: _208  and  _209
REMARK   86  A    between atoms: _208  and  _211
REMARK   87  A    between atoms: _211  and  _212
REMARK   88  A    between atoms: _215  and  _217
REMARK   89  A    between atoms: _217  and  _218
REMARK   90  A    between atoms: _217  and  _220
REMARK   91  A    between atoms: _220  and  _221
REMARK   92  A    between atoms: _221  and  _222
REMARK   93  A    between atoms: _224  and  _226
REMARK   94  A    between atoms: _226  and  _227
REMARK   95  A    between atoms: _226  and  _229
REMARK   96  A    between atoms: _229  and  _230
REMARK   97  A    between atoms: _230  and  _231
REMARK   98  A    between atoms: _234  and  _236
REMARK   99  A    between atoms: _236  and  _237
REMARK  100  A    between atoms: _236  and  _239
REMARK  101  A    between atoms: _239  and  _240
REMARK  102  A    between atoms: _243  and  _245
REMARK  103  A    between atoms: _245  and  _246
REMARK  104  A    between atoms: _245  and  _248
REMARK  105  A    between atoms: _248  and  _249
REMARK  106  A    between atoms: _249  and  _250
REMARK  107  A    between atoms: _252  and  _254
REMARK  108  A    between atoms: _254  and  _255
REMARK  109  A    between atoms: _258  and  _260
REMARK  110  A    between atoms: _260  and  _261
REMARK  111  A    between atoms: _263  and  _265
REMARK  112  A    between atoms: _265  and  _266
REMARK  113  A    between atoms: _268  and  _270
REMARK  114  A    between atoms: _270  and  _271
REMARK  115  A    between atoms: _270  and  _273
REMARK  116  A    between atoms: _273  and  _274
REMARK  117  A    between atoms: _277  and  _279
REMARK  118  A    between atoms: _279  and  _280
REMARK  119  A    between atoms: _279  and  _282
REMARK  120  A    between atoms: _282  and  _283
REMARK  121  A    between atoms: _286  and  _288
REMARK  122  A    between atoms: _288  and  _289
REMARK  123  A    between atoms: _288  and  _291
REMARK  124  A    between atoms: _291  and  _292
REMARK  125  A    between atoms: _292  and  _293
REMARK  126  A    between atoms: _293  and  _294
REMARK  127  A    between atoms: _294  and  _295
REMARK  128  A    between atoms: _299  and  _301
REMARK  129  A    between atoms: _301  and  _302
REMARK  130  A    between atoms: _301  and  _304
REMARK  131  A    between atoms: _304  and  _305
REMARK  132  A    between atoms: _307  and  _309
REMARK  133  A    between atoms: _309  and  _310
REMARK  134  A    between atoms: _309  and  _312
REMARK  135  A    between atoms: _312  and  _313
REMARK  136  A    between atoms: _319  and  _321
REMARK  137  A    between atoms: _321  and  _322
REMARK  138  A    between atoms: _321  and  _324
REMARK  139  A    between atoms: _324  and  _325
REMARK  140  A    between atoms: _328  and  _330
REMARK  141  A    between atoms: _330  and  _331
REMARK  142  A    between atoms: _330  and  _333
REMARK  143  A    between atoms: _333  and  _334
REMARK  144  A    between atoms: _334  and  _335
REMARK  145  A    between atoms: _338  and  _340
REMARK  146  A    between atoms: _340  and  _341
REMARK  147  A    between atoms: _340  and  _343
REMARK  148  A    between atoms: _343  and  _344
REMARK  149  A    between atoms: _349  and  _351
REMARK  150  A    between atoms: _351  and  _352
REMARK  151  A    between atoms: _355  and  _357
REMARK  152  A    between atoms: _357  and  _358
REMARK  153  A    between atoms: _361  and  _363
REMARK  154  A    between atoms: _363  and  _364
REMARK  155  A    between atoms: _363  and  _366
REMARK  156  A    between atoms: _366  and  _367
REMARK  157  A    between atoms: _367  and  _368
REMARK  158  A    between atoms: _368  and  _369
REMARK  159  A    between atoms: _378  and  _380
REMARK  160  A    between atoms: _380  and  _381
REMARK  161  A    between atoms: _380  and  _383
REMARK  162  A    between atoms: _383  and  _384
REMARK  163  A    between atoms: _389  and  _391
REMARK  164  A    between atoms: _391  and  _392
REMARK  165  A    between atoms: _391  and  _394
REMARK  166  A    between atoms: _396  and  _398
REMARK  167  A    between atoms: _398  and  _399
REMARK  168  A    between atoms: _398  and  _401
REMARK  169  A    between atoms: _401  and  _402
REMARK  170  A    between atoms: _405  and  _407
REMARK  171  A    between atoms: _407  and  _408
REMARK  172  A    between atoms: _407  and  _410
REMARK  173  A    between atoms: _410  and  _411
REMARK  174  A    between atoms: _414  and  _416
REMARK  175  A    between atoms: _416  and  _417
REMARK  176  A    between atoms: _416  and  _419
REMARK  177  A    between atoms: _419  and  _420
REMARK  178  A    between atoms: _423  and  _425
REMARK  179  A    between atoms: _425  and  _426
REMARK  180  A    between atoms: _425  and  _428
REMARK  181  A    between atoms: _428  and  _429
REMARK  182  A    between atoms: _429  and  _430
REMARK  183  A    between atoms: _430  and  _431
REMARK  184  A    between atoms: _431  and  _432
REMARK  185  A    between atoms: _436  and  _438
REMARK  186  A    between atoms: _438  and  _439
REMARK  187  A    between atoms: _438  and  _441
REMARK  188  A    between atoms: _441  and  _442
REMARK  189  A    between atoms: _445  and  _447
REMARK  190  A    between atoms: _447  and  _448
REMARK  191  A    between atoms: _450  and  _452
REMARK  192  A    between atoms: _452  and  _453
REMARK  193  A    between atoms: _452  and  _455
REMARK  194  A    between atoms: _455  and  _456
REMARK  195  A    between atoms: _459  and  _461
REMARK  196  A    between atoms: _461  and  _462
REMARK  197  A    between atoms: _461  and  _464
REMARK  198  A    between atoms: _464  and  _465
REMARK  199  A    between atoms: _471  and  _473
REMARK  200  A    between atoms: _473  and  _474
REMARK                            x       y       z     vdW  Elec       q    Type
REMARK                         _______ _______ _______ _____ _____    ______ ____
ROOT
ATOM      1  CA  GLU A   1     -37.620  -5.567  63.981  0.00  0.00    +0.134 C 
ENDROOT
BRANCH   1   2
ATOM      2  N   GLU A   1     -38.381  -4.367  63.674  0.00  0.00    -0.239 NA
ATOM      3  H   GLU A   1     -38.783  -4.246  62.723  0.00  0.00    +0.142 HD
ENDBRANCH   1   2
BRANCH   1   4
ATOM      4  C   GLU A   1     -36.225  -5.191  64.471  0.00  0.00    +0.224 C 
ATOM      5  O   GLU A   1     -35.753  -5.696  65.488  0.00  0.00    -0.287 OA
ENDBRANCH   1   4
BRANCH   1   6
ATOM      6  CB  GLU A   1     -37.528  -6.454  62.741  0.00  0.00    +0.037 C 
BRANCH   6   7
ATOM      7  CG  GLU A   1     -36.805  -7.765  62.978  0.00  0.00    +0.116 C 
BRANCH   7   8
ATOM      8  CD  GLU A   1     -37.020  -8.758  61.857  0.00  0.00    +0.365 C 
ATOM      9  OE2 GLU A   1     -36.509  -9.892  61.971  0.00  0.00    -0.246 OA
ATOM     10  OE1 GLU A   1     -37.698  -8.405  60.863  0.00  0.00    -0.246 OA
ENDBRANCH   7   8
ENDBRANCH   6   7
ENDBRANCH   1   6
TORSDOF 5
REMARK  Name = ../refined-set-2016/4cd0/4cd0_pocket.pdb
REMARK  200 active torsions:
REMARK  status: ('A' for Active; 'I' for Inactive)
REMARK    1  A    between atoms: _1  and  _3
REMARK    2  A    between atoms: _3  and  _4
REMARK    3  A    between atoms: _3  and  _6
REMARK    4  A    between atoms: _6  and  _7
REMARK    5  A    between atoms: _7  and  _8
REMARK    6  A    between atoms: _8  and  _9
REMARK    7  A    between atoms: _18  and  _20
REMARK    8  A    between atoms: _20  and  _21
REMARK    9  A    between atoms: _23  and  _25
REMARK   10  A    between atoms: _25  and  _26
REMARK   11  A    between atoms: _25  and  _28
REMARK   12  A    between atoms: _28  and  _29
REMARK   13  A    between atoms: _32  and  _34
REMARK   14  A    between atoms: _34  and  _35
REMARK   15  A    between atoms: _37  and  _39
REMARK   16  A    between atoms: _39  and  _40
REMARK   17  A    between atoms: _39  and  _42
REMARK   18  A    between atoms: _42  and  _43
REMARK   19  A    between atoms: _48  and  _50
REMARK   20  A    between atoms: _50  and  _51
REMARK   21  A    between atoms: _53  and  _55
REMARK   22  A    between atoms: _55  and  _56
REMARK   23  A    between atoms: _59  and  _61
REMARK   24  A    between atoms: _61  and  _62
REMARK   25  A    between atoms: _61  and  _64
REMARK   26  A    between atoms: _64  and  _65
REMARK   27  A    between atoms: _71  and  _73
REMARK   28  A    between atoms: _73  and  _74
REMARK   29  A    between atoms: _76  and  _78
REMARK   30  A    between atoms: _78  and  _79
REMARK   31  A    between atoms: _78  and  _81
REMARK   32  A    between atoms: _81  and  _82
REMARK   33  A    between atoms: _82  and  _83
REMARK   34  A    between atoms: _86  and  _88
REMARK   35  A    between atoms: _88  and  _89
REMARK   36  A    between atoms: _88  and  _91
REMARK   37  A    between atoms: _94  and  _96
REMARK   38  A    between atoms: _96  and  _97
REMARK   39  A    between atoms: _96  and  _99
REMARK   40  A    between atoms: _99  and  _100
REMARK   41  A    between atoms: _105  and  _106
REMARK   42  A    between atoms: _108  and  _110
REMARK   43  A    between atoms: _110  and  _111
REMARK   44  A    between atoms: _110  and  _113
REMARK   45  A    between atoms: _113  and  _114
REMARK   46  A    between atoms: _114  and  _115
REMARK   47  A    between atoms: _118  and  _120
REMARK   48  A    between atoms: _120  and  _121
REMARK   49  A    between atoms: _120  and  _123
REMARK   50  A    between atoms: _126  and  _128
REMARK   51  A    between atoms: _128  and  _129
REMARK   52  A    between atoms: _132  and  _134
REMARK   53  A    between atoms: _134  and  _135
REMARK   54  A    between atoms: _134  and  _137
REMARK   55  A    between atoms: _140  and  _142
REMARK   56  A    between atoms: _142  and  _143
REMARK   57  A    between atoms: _142  and  _145
REMARK   58  A    between atoms: _145  and  _146
REMARK   59  A    between atoms: _146  and  _147
REMARK   60  A    between atoms: _147  and  _148
REMARK   61  A    between atoms: _148  and  _149
REMARK   62  A    between atoms: _153  and  _155
REMARK   63  A    between atoms: _155  and  _156
REMARK   64  A    between atoms: _155  and  _158
REMARK   65  A    between atoms: _158  and  _159
REMARK   66  A    between atoms: _162  and  _164
REMARK   67  A    between atoms: _164  and  _165
REMARK   68  A    between atoms: _164  and  _167
REMARK   69  A    between atoms: _167  and  _168
REMARK   70  A    between atoms: _168  and  _169
REMARK   71  A    between atoms: _172  and  _174
REMARK   72  A    between atoms: _174  and  _175
REMARK   73  A    between atoms: _174  and  _177
REMARK   74  A    between atoms: _180  and  _182
REMARK   75  A    between atoms: _182  and  _183
REMARK   76  A    between atoms: _182  and  _185
REMARK   77  A    between atoms: _185  and  _186
REMARK   78  A    between atoms: _186  and  _187
REMARK   79  A    between atoms: _187  and  _188
REMARK   80  A    between atoms: _197  and  _199
REMARK   81  A    between atoms: _199  and  _200
REMARK   82  A    between atoms: _199  and  _202
REMARK   83  A    between atoms: _202  and  _203
REMARK   84  A    between atoms: _206  and  _208
REMARK   85  A    between atoms: _208  and  _209
REMARK   86  A    between atoms: _208  and  _211
REMARK   87  A    between atoms: _211  and  _212
REMARK   88  A    between atoms: _215  and  _217
REMARK   89  A    between atoms: _217  and  _218
REMARK   90  A    between atoms: _217  and  _220
REMARK   91  A    between atoms: _220  and  _221
REMARK   92  A    between atoms: _221  and  _222
REMARK   93  A    between atoms: _224  and  _226
REMARK   94  A    between atoms: _226  and  _227
REMARK   95  A    between atoms: _226  and  _229
REMARK   96  A    between atoms: _229  and  _230
REMARK   97  A    between atoms: _230  and  _231
REMARK   98  A    between atoms: _234  and  _236
REMARK   99  A    between atoms: _236  and  _237
REMARK  100  A    between atoms: _236  and  _239
REMARK  101  A    between atoms: _239  and  _240
REMARK  102  A    between atoms: _243  and  _245
REMARK  103  A    between atoms: _245  and  _246
REMARK  104  A    between atoms: _245  and  _248
REMARK  105  A    between atoms: _248  and  _249
REMARK  106  A    between atoms: _249  and  _250
REMARK  107  A    between atoms: _252  and  _254
REMARK  108  A    between atoms: _254  and  _255
REMARK  109  A    between atoms: _258  and  _260
REMARK  110  A    between atoms: _260  and  _261
REMARK  111  A    between atoms: _263  and  _265
REMARK  112  A    between atoms: _265  and  _266
REMARK  113  A    between atoms: _268  and  _270
REMARK  114  A    between atoms: _270  and  _271
REMARK  115  A    between atoms: _270  and  _273
REMARK  116  A    between atoms: _273  and  _274
REMARK  117  A    between atoms: _277  and  _279
REMARK  118  A    between atoms: _279  and  _280
REMARK  119  A    between atoms: _279  and  _282
REMARK  120  A    between atoms: _282  and  _283
REMARK  121  A    between atoms: _286  and  _288
REMARK  122  A    between atoms: _288  and  _289
REMARK  123  A    between atoms: _288  and  _291
REMARK  124  A    between atoms: _291  and  _292
REMARK  125  A    between atoms: _292  and  _293
REMARK  126  A    between atoms: _293  and  _294
REMARK  127  A    between atoms: _294  and  _295
REMARK  128  A    between atoms: _299  and  _301
REMARK  129  A    between atoms: _301  and  _302
REMARK  130  A    between atoms: _301  and  _304
REMARK  131  A    between atoms: _304  and  _305
REMARK  132  A    between atoms: _307  and  _309
REMARK  133  A    between atoms: _309  and  _310
REMARK  134  A    between atoms: _309  and  _312
REMARK  135  A    between atoms: _312  and  _313
REMARK  136  A    between atoms: _319  and  _321
REMARK  137  A    between atoms: _321  and  _322
REMARK  138  A    between atoms: _321  and  _324
REMARK  139  A    between atoms: _324  and  _325
REMARK  140  A    between atoms: _328  and  _330
REMARK  141  A    between atoms: _330  and  _331
REMARK  142  A    between atoms: _330  and  _333
REMARK  143  A    between atoms: _333  and  _334
REMARK  144  A    between atoms: _334  and  _335
REMARK  145  A    between atoms: _338  and  _340
REMARK  146  A    between atoms: _340  and  _341
REMARK  147  A    between atoms: _340  and  _343
REMARK  148  A    between atoms: _343  and  _344
REMARK  149  A    between atoms: _349  and  _351
REMARK  150  A    between atoms: _351  and  _352
REMARK  151  A    between atoms: _355  and  _357
REMARK  152  A    between atoms: _357  and  _358
REMARK  153  A    between atoms: _361  and  _363
REMARK  154  A    between atoms: _363  and  _364
REMARK  155  A    between atoms: _363  and  _366
REMARK  156  A    between atoms: _366  and  _367
REMARK  157  A    between atoms: _367  and  _368
REMARK  158  A    between atoms: _368  and  _369
REMARK  159  A    between atoms: _378  and  _380
REMARK  160  A    between atoms: _380  and  _381
REMARK  161  A    between atoms: _380  and  _383
REMARK  162  A    between atoms: _383  and  _384
REMARK  163  A    between atoms: _389  and  _391
REMARK  164  A    between atoms: _391  and  _392
REMARK  165  A    between atoms: _391  and  _394
REMARK  166  A    between atoms: _396  and  _398
REMARK  167  A    between atoms: _398  and  _399
REMARK  168  A    between atoms: _398  and  _401
REMARK  169  A    between atoms: _401  and  _402
REMARK  170  A    between atoms: _405  and  _407
REMARK  171  A    between atoms: _407  and  _408
REMARK  172  A    between atoms: _407  and  _410
REMARK  173  A    between atoms: _410  and  _411
REMARK  174  A    between atoms: _414  and  _416
REMARK  175  A    between atoms: _416  and  _417
REMARK  176  A    between atoms: _416  and  _419
REMARK  177  A    between atoms: _419  and  _420
REMARK  178  A    between atoms: _423  and  _425
REMARK  179  A    between atoms: _425  and  _426
REMARK  180  A    between atoms: _425  and  _428
REMARK  181  A    between atoms: _428  and  _429
REMARK  182  A    between atoms: _429  and  _430
REMARK  183  A    between atoms: _430  and  _431
REMARK  184  A    between atoms: _431  and  _432
REMARK  185  A    between atoms: _436  and  _438
REMARK  186  A    between atoms: _438  and  _439
REMARK  187  A    between atoms: _438  and  _441
REMARK  188  A    between atoms: _441  and  _442
REMARK  189  A    between atoms: _445  and  _447
REMARK  190  A    between atoms: _447  and  _448
REMARK  191  A    between atoms: _450  and  _452
REMARK  192  A    between atoms: _452  and  _453
REMARK  193  A    between atoms: _452  and  _455
REMARK  194  A    between atoms: _455  and  _456
REMARK  195  A    between atoms: _459  and  _461
REMARK  196  A    between atoms: _461  and  _462
REMARK  197  A    between atoms: _461  and  _464
REMARK  198  A    between atoms: _464  and  _465
REMARK  199  A    between atoms: _471  and  _473
REMARK  200  A    between atoms: _473  and  _474
REMARK                            x       y       z     vdW  Elec       q    Type
REMARK                         _______ _______ _______ _____ _____    ______ ____
ROOT
ATOM      1  CA  ARG A   2     -27.499 -10.337  69.458  0.00  0.00    +0.137 C 
ENDROOT
BRANCH   1   4
ATOM      2  C   VAL A   1     -29.230 -12.048  69.507  0.00  0.00    +0.238 C 
ATOM      3  O   VAL A   1     -30.122 -11.212  69.665  0.00  0.00    -0.274 OA
ATOM      4  N   ARG A   2     -27.946 -11.726  69.387  0.00  0.00    -0.298 N 
ATOM      5  H   ARG A   2     -27.244 -12.479  69.239  0.00  0.00    +0.150 HD
BRANCH   2   6
ATOM      6  CA  VAL A   1     -29.558 -13.531  69.476  0.00  0.00    +0.145 C 
BRANCH   6   7
ATOM      7  CB  VAL A   1     -30.043 -13.944  68.059  0.00  0.00    +0.025 C 
ATOM      8  CG2 VAL A   1     -30.295 -15.437  68.020  0.00  0.00    +0.002 C 
ATOM      9  CG1 VAL A   1     -29.000 -13.598  67.016  0.00  0.00    +0.002 C 
ENDBRANCH   6   7
BRANCH   6  10
ATOM     10  N   VAL A   1     -30.573 -13.806  70.483  0.00  0.00    -0.238 NA
ATOM     11  H   VAL A   1     -31.462 -14.264  70.197  0.00  0.00    +0.142 HD
ENDBRANCH   6  10
ENDBRANCH   2   6
ENDBRANCH   1   4
BRANCH   1  12
ATOM     12  C   ARG A   2     -27.736  -9.642  68.130  0.00  0.00    +0.227 C 
ATOM     13  O   ARG A   2     -27.700 -10.278  67.070  0.00  0.00    -0.286 OA
ENDBRANCH   1  12
BRANCH   1  14
ATOM     14  CB  ARG A   2     -26.005 -10.265  69.790  0.00  0.00    +0.031 C 
BRANCH  14  15
ATOM     15  CG  ARG A   2     -25.604 -10.959  71.086  0.00  0.00    +0.045 C 
BRANCH  15  16
ATOM     16  CD  ARG A   2     -26.158 -10.241  72.304  0.00  0.00    +0.174 C 
BRANCH  16  17
ATOM     17  NE  ARG A   2     -25.802 -10.942  73.536  0.00  0.00    -0.265 N 
ATOM     18  CZ  ARG A   2     -25.944 -10.436  74.757  0.00  0.00    +0.342 C 
ATOM     19  NH2 ARG A   2     -25.588 -11.151  75.817  0.00  0.00    -0.292 N 
ATOM     20 HH21 ARG A   2     -25.699 -10.755  76.772  0.00  0.00    +0.255 HD
ATOM     21 HH22 ARG A   2     -25.198 -12.107  75.692  0.00  0.00    +0.255 HD
ATOM     22  NH1 ARG A   2     -26.437  -9.217  74.919  0.00  0.00    -0.292 N 
ATOM     23 HH11 ARG A   2     -26.547  -8.823  75.875  0.00  0.00    +0.255 HD
ATOM     24 HH12 ARG A   2     -26.714  -8.654  74.090  0.00  0.00    +0.255 HD
ATOM     25  HE  ARG A   2     -25.411 -11.902  73.452  0.00  0.00    +0.259 HD
ENDBRANCH  16  17
ENDBRANCH  15  16
ENDBRANCH  14  15
ENDBRANCH   1  14
TORSDOF 9
REMARK  Name = ../refined-set-2016/4cd0/4cd0_pocket.pdb
REMARK  200 active torsions:
REMARK  status: ('A' for Active; 'I' for Inactive)
REMARK    1  A    between atoms: _1  and  _3
REMARK    2  A    between atoms: _3  and  _4
REMARK    3  A    between atoms: _3  and  _6
REMARK    4  A    between atoms: _6  and  _7
REMARK    5  A    between atoms: _7  and  _8
REMARK    6  A    between atoms: _8  and  _9
REMARK    7  A    between atoms: _18  and  _20
REMARK    8  A    between atoms: _20  and  _21
REMARK    9  A    between atoms: _23  and  _25
REMARK   10  A    between atoms: _25  and  _26
REMARK   11  A    between atoms: _25  and  _28
REMARK   12  A    between atoms: _28  and  _29
REMARK   13  A    between atoms: _32  and  _34
REMARK   14  A    between atoms: _34  and  _35
REMARK   15  A    between atoms: _37  and  _39
REMARK   16  A    between atoms: _39  and  _40
REMARK   17  A    between atoms: _39  and  _42
REMARK   18  A    between atoms: _42  and  _43
REMARK   19  A    between atoms: _48  and  _50
REMARK   20  A    between atoms: _50  and  _51
REMARK   21  A    between atoms: _53  and  _55
REMARK   22  A    between atoms: _55  and  _56
REMARK   23  A    between atoms: _59  and  _61
REMARK   24  A    between atoms: _61  and  _62
REMARK   25  A    between atoms: _61  and  _64
REMARK   26  A    between atoms: _64  and  _65
REMARK   27  A    between atoms: _71  and  _73
REMARK   28  A    between atoms: _73  and  _74
REMARK   29  A    between atoms: _76  and  _78
REMARK   30  A    between atoms: _78  and  _79
REMARK   31  A    between atoms: _78  and  _81
REMARK   32  A    between atoms: _81  and  _82
REMARK   33  A    between atoms: _82  and  _83
REMARK   34  A    between atoms: _86  and  _88
REMARK   35  A    between atoms: _88  and  _89
REMARK   36  A    between atoms: _88  and  _91
REMARK   37  A    between atoms: _94  and  _96
REMARK   38  A    between atoms: _96  and  _97
REMARK   39  A    between atoms: _96  and  _99
REMARK   40  A    between atoms: _99  and  _100
REMARK   41  A    between atoms: _105  and  _106
REMARK   42  A    between atoms: _108  and  _110
REMARK   43  A    between atoms: _110  and  _111
REMARK   44  A    between atoms: _110  and  _113
REMARK   45  A    between atoms: _113  and  _114
REMARK   46  A    between atoms: _114  and  _115
REMARK   47  A    between atoms: _118  and  _120
REMARK   48  A    between atoms: _120  and  _121
REMARK   49  A    between atoms: _120  and  _123
REMARK   50  A    between atoms: _126  and  _128
REMARK   51  A    between atoms: _128  and  _129
REMARK   52  A    between atoms: _132  and  _134
REMARK   53  A    between atoms: _134  and  _135
REMARK   54  A    between atoms: _134  and  _137
REMARK   55  A    between atoms: _140  and  _142
REMARK   56  A    between atoms: _142  and  _143
REMARK   57  A    between atoms: _142  and  _145
REMARK   58  A    between atoms: _145  and  _146
REMARK   59  A    between atoms: _146  and  _147
REMARK   60  A    between atoms: _147  and  _148
REMARK   61  A    between atoms: _148  and  _149
REMARK   62  A    between atoms: _153  and  _155
REMARK   63  A    between atoms: _155  and  _156
REMARK   64  A    between atoms: _155  and  _158
REMARK   65  A    between atoms: _158  and  _159
REMARK   66  A    between atoms: _162  and  _164
REMARK   67  A    between atoms: _164  and  _165
REMARK   68  A    between atoms: _164  and  _167
REMARK   69  A    between atoms: _167  and  _168
REMARK   70  A    between atoms: _168  and  _169
REMARK   71  A    between atoms: _172  and  _174
REMARK   72  A    between atoms: _174  and  _175
REMARK   73  A    between atoms: _174  and  _177
REMARK   74  A    between atoms: _180  and  _182
REMARK   75  A    between atoms: _182  and  _183
REMARK   76  A    between atoms: _182  and  _185
REMARK   77  A    between atoms: _185  and  _186
REMARK   78  A    between atoms: _186  and  _187
REMARK   79  A    between atoms: _187  and  _188
REMARK   80  A    between atoms: _197  and  _199
REMARK   81  A    between atoms: _199  and  _200
REMARK   82  A    between atoms: _199  and  _202
REMARK   83  A    between atoms: _202  and  _203
REMARK   84  A    between atoms: _206  and  _208
REMARK   85  A    between atoms: _208  and  _209
REMARK   86  A    between atoms: _208  and  _211
REMARK   87  A    between atoms: _211  and  _212
REMARK   88  A    between atoms: _215  and  _217
REMARK   89  A    between atoms: _217  and  _218
REMARK   90  A    between atoms: _217  and  _220
REMARK   91  A    between atoms: _220  and  _221
REMARK   92  A    between atoms: _221  and  _222
REMARK   93  A    between atoms: _224  and  _226
REMARK   94  A    between atoms: _226  and  _227
REMARK   95  A    between atoms: _226  and  _229
REMARK   96  A    between atoms: _229  and  _230
REMARK   97  A    between atoms: _230  and  _231
REMARK   98  A    between atoms: _234  and  _236
REMARK   99  A    between atoms: _236  and  _237
REMARK  100  A    between atoms: _236  and  _239
REMARK  101  A    between atoms: _239  and  _240
REMARK  102  A    between atoms: _243  and  _245
REMARK  103  A    between atoms: _245  and  _246
REMARK  104  A    between atoms: _245  and  _248
REMARK  105  A    between atoms: _248  and  _249
REMARK  106  A    between atoms: _249  and  _250
REMARK  107  A    between atoms: _252  and  _254
REMARK  108  A    between atoms: _254  and  _255
REMARK  109  A    between atoms: _258  and  _260
REMARK  110  A    between atoms: _260  and  _261
REMARK  111  A    between atoms: _263  and  _265
REMARK  112  A    between atoms: _265  and  _266
REMARK  113  A    between atoms: _268  and  _270
REMARK  114  A    between atoms: _270  and  _271
REMARK  115  A    between atoms: _270  and  _273
REMARK  116  A    between atoms: _273  and  _274
REMARK  117  A    between atoms: _277  and  _279
REMARK  118  A    between atoms: _279  and  _280
REMARK  119  A    between atoms: _279  and  _282
REMARK  120  A    between atoms: _282  and  _283
REMARK  121  A    between atoms: _286  and  _288
REMARK  122  A    between atoms: _288  and  _289
REMARK  123  A    between atoms: _288  and  _291
REMARK  124  A    between atoms: _291  and  _292
REMARK  125  A    between atoms: _292  and  _293
REMARK  126  A    between atoms: _293  and  _294
REMARK  127  A    between atoms: _294  and  _295
REMARK  128  A    between atoms: _299  and  _301
REMARK  129  A    between atoms: _301  and  _302
REMARK  130  A    between atoms: _301  and  _304
REMARK  131  A    between atoms: _304  and  _305
REMARK  132  A    between atoms: _307  and  _309
REMARK  133  A    between atoms: _309  and  _310
REMARK  134  A    between atoms: _309  and  _312
REMARK  135  A    between atoms: _312  and  _313
REMARK  136  A    between atoms: _319  and  _321
REMARK  137  A    between atoms: _321  and  _322
REMARK  138  A    between atoms: _321  and  _324
REMARK  139  A    between atoms: _324  and  _325
REMARK  140  A    between atoms: _328  and  _330
REMARK  141  A    between atoms: _330  and  _331
REMARK  142  A    between atoms: _330  and  _333
REMARK  143  A    between atoms: _333  and  _334
REMARK  144  A    between atoms: _334  and  _335
REMARK  145  A    between atoms: _338  and  _340
REMARK  146  A    between atoms: _340  and  _341
REMARK  147  A    between atoms: _340  and  _343
REMARK  148  A    between atoms: _343  and  _344
REMARK  149  A    between atoms: _349  and  _351
REMARK  150  A    between atoms: _351  and  _352
REMARK  151  A    between atoms: _355  and  _357
REMARK  152  A    between atoms: _357  and  _358
REMARK  153  A    between atoms: _361  and  _363
REMARK  154  A    between atoms: _363  and  _364
REMARK  155  A    between atoms: _363  and  _366
REMARK  156  A    between atoms: _366  and  _367
REMARK  157  A    between atoms: _367  and  _368
REMARK  158  A    between atoms: _368  and  _369
REMARK  159  A    between atoms: _378  and  _380
REMARK  160  A    between atoms: _380  and  _381
REMARK  161  A    between atoms: _380  and  _383
REMARK  162  A    between atoms: _383  and  _384
REMARK  163  A    between atoms: _389  and  _391
REMARK  164  A    between atoms: _391  and  _392
REMARK  165  A    between atoms: _391  and  _394
REMARK  166  A    between atoms: _396  and  _398
REMARK  167  A    between atoms: _398  and  _399
REMARK  168  A    between atoms: _398  and  _401
REMARK  169  A    between atoms: _401  and  _402
REMARK  170  A    between atoms: _405  and  _407
REMARK  171  A    between atoms: _407  and  _408
REMARK  172  A    between atoms: _407  and  _410
REMARK  173  A    between atoms: _410  and  _411
REMARK  174  A    between atoms: _414  and  _416
REMARK  175  A    between atoms: _416  and  _417
REMARK  176  A    between atoms: _416  and  _419
REMARK  177  A    between atoms: _419  and  _420
REMARK  178  A    between atoms: _423  and  _425
REMARK  179  A    between atoms: _425  and  _426
REMARK  180  A    between atoms: _425  and  _428
REMARK  181  A    between atoms: _428  and  _429
REMARK  182  A    between atoms: _429  and  _430
REMARK  183  A    between atoms: _430  and  _431
REMARK  184  A    between atoms: _431  and  _432
REMARK  185  A    between atoms: _436  and  _438
REMARK  186  A    between atoms: _438  and  _439
REMARK  187  A    between atoms: _438  and  _441
REMARK  188  A    between atoms: _441  and  _442
REMARK  189  A    between atoms: _445  and  _447
REMARK  190  A    between atoms: _447  and  _448
REMARK  191  A    between atoms: _450  and  _452
REMARK  192  A    between atoms: _452  and  _453
REMARK  193  A    between atoms: _452  and  _455
REMARK  194  A    between atoms: _455  and  _456
REMARK  195  A    between atoms: _459  and  _461
REMARK  196  A    between atoms: _461  and  _462
REMARK  197  A    between atoms: _461  and  _464
REMARK  198  A    between atoms: _464  and  _465
REMARK  199  A    between atoms: _471  and  _473
REMARK  200  A    between atoms: _473  and  _474
REMARK                            x       y       z     vdW  Elec       q    Type
REMARK                         _______ _______ _______ _____ _____    ______ ____
ROOT
ATOM      1  C   GLY A   8     -26.779 -24.390  63.705  0.00  0.00    +0.243 C 
ATOM      2  O   GLY A   8     -27.434 -25.426  63.629  0.00  0.00    -0.273 OA
ATOM      3  N   GLY A   9     -27.172 -23.245  63.152  0.00  0.00    -0.295 N 
ATOM      4  H   GLY A   9     -26.573 -22.399  63.238  0.00  0.00    +0.150 HD
ENDROOT
BRANCH   1   5
ATOM      5  CA  GLY A   8     -25.463 -24.376  64.458  0.00  0.00    +0.176 C 
BRANCH   5   7
ATOM      6  C   ALA A   7     -24.018 -22.870  63.251  0.00  0.00    +0.241 C 
ATOM      7  N   GLY A   8     -24.744 -23.120  64.334  0.00  0.00    -0.295 N 
ATOM      8  H   GLY A   8     -24.798 -22.414  65.096  0.00  0.00    +0.150 HD
ATOM      9  O   ALA A   7     -23.878 -23.684  62.340  0.00  0.00    -0.273 OA
BRANCH   6  10
ATOM     10  CA  ALA A   7     -23.344 -21.505  63.180  0.00  0.00    +0.149 C 
ATOM     11  CB  ALA A   7     -21.839 -21.654  63.401  0.00  0.00    +0.031 C 
BRANCH  10  13
ATOM     12  C   MET A   6     -25.147 -20.109  64.050  0.00  0.00    +0.241 C 
ATOM     13  N   ALA A   7     -23.892 -20.540  64.130  0.00  0.00    -0.297 N 
ATOM     14  H   ALA A   7     -23.282 -20.180  64.891  0.00  0.00    +0.150 HD
ATOM     15  O   MET A   6     -26.008 -20.657  63.355  0.00  0.00    -0.273 OA
BRANCH  12  16
ATOM     16  CA  MET A   6     -25.475 -18.874  64.881  0.00  0.00    +0.149 C 
BRANCH  16  19
ATOM     17  C   LEU A   5     -24.271 -16.897  64.166  0.00  0.00    +0.241 C 
ATOM     18  O   LEU A   5     -23.336 -17.141  64.925  0.00  0.00    -0.273 OA
ATOM     19  N   MET A   6     -25.327 -17.691  64.051  0.00  0.00    -0.297 N 
ATOM     20  H   MET A   6     -26.063 -17.462  63.353  0.00  0.00    +0.150 HD
BRANCH  17  21
ATOM     21  CA  LEU A   5     -24.271 -15.647  63.299  0.00  0.00    +0.149 C 
BRANCH  21  24
ATOM     22  C   GLU A   4     -25.229 -13.923  64.709  0.00  0.00    +0.241 C 
ATOM     23  O   GLU A   4     -26.360 -14.373  64.524  0.00  0.00    -0.273 OA
ATOM     24  N   LEU A   5     -24.153 -14.460  64.140  0.00  0.00    -0.297 N 
ATOM     25  H   LEU A   5     -23.219 -14.030  64.296  0.00  0.00    +0.150 HD
BRANCH  22  26
ATOM     26  CA  GLU A   4     -25.012 -12.704  65.620  0.00  0.00    +0.149 C 
BRANCH  26  28
ATOM     27  C   MET A   3     -26.048 -11.271  63.945  0.00  0.00    +0.241 C 
ATOM     28  N   GLU A   4     -25.892 -11.614  65.215  0.00  0.00    -0.297 N 
ATOM     29  H   GLU A   4     -26.413 -11.089  65.946  0.00  0.00    +0.150 HD
ATOM     30  O   MET A   3     -25.288 -11.633  63.056  0.00  0.00    -0.273 OA
BRANCH  27  31
ATOM     31  CA  MET A   3     -27.246 -10.391  63.639  0.00  0.00    +0.149 C 
BRANCH  31  34
ATOM     32  C   LEU A   2     -27.096  -8.272  62.465  0.00  0.00    +0.241 C 
ATOM     33  O   LEU A   2     -27.257  -7.631  63.505  0.00  0.00    -0.273 OA
ATOM     34  N   MET A   3     -27.054  -9.600  62.432  0.00  0.00    -0.297 N 
ATOM     35  H   MET A   3     -26.881 -10.083  61.527  0.00  0.00    +0.150 HD
BRANCH  32  36
ATOM     36  CA  LEU A   2     -26.917  -7.557  61.135  0.00  0.00    +0.149 C 
BRANCH  36  38
ATOM     37  C   ILE A   1     -28.998  -6.975  60.003  0.00  0.00    +0.238 C 
ATOM     38  N   LEU A   2     -28.043  -6.665  60.876  0.00  0.00    -0.297 N 
ATOM     39  H   LEU A   2     -28.100  -5.762  61.388  0.00  0.00    +0.150 HD
ATOM     40  O   ILE A   1     -29.036  -8.045  59.397  0.00  0.00    -0.274 OA
BRANCH  37  41
ATOM     41  CA  ILE A   1     -30.063  -5.916  59.763  0.00  0.00    +0.145 C 
BRANCH  41  42
ATOM     42  CB  ILE A   1     -31.388  -6.352  60.411  0.00  0.00    +0.025 C 
ATOM     43  CG2 ILE A   1     -31.172  -6.630  61.894  0.00  0.00    +0.002 C 
BRANCH  42  44
ATOM     44  CG1 ILE A   1     -32.440  -5.248  60.225  0.00  0.00    +0.002 C 
ATOM     45  CD1 ILE A   1     -33.831  -5.622  60.726  0.00  0.00    +0.000 C 
ENDBRANCH  42  44
ENDBRANCH  41  42
BRANCH  41  46
ATOM     46  N   ILE A   1     -30.209  -5.738  58.330  0.00  0.00    -0.238 NA
ATOM     47  H   ILE A   1     -30.589  -6.515  57.753  0.00  0.00    +0.142 HD
ENDBRANCH  41  46
ENDBRANCH  37  41
ENDBRANCH  36  38
BRANCH  36  48
ATOM     48  CB  LEU A   2     -25.608  -6.762  61.157  0.00  0.00    +0.029 C 
BRANCH  48  49
ATOM     49  CG  LEU A   2     -25.344  -5.929  59.897  0.00  0.00    +0.002 C 
ATOM     50  CD2 LEU A   2     -24.001  -5.215  60.003  0.00  0.00    +0.000 C 
ATOM     51  CD1 LEU A   2     -25.378  -6.847  58.677  0.00  0.00    +0.000 C 
ENDBRANCH  48  49
ENDBRANCH  36  48
ENDBRANCH  32  36
ENDBRANCH  31  34
BRANCH  31  52
ATOM     52  CB  MET A   3     -28.487 -11.271  63.493  0.00  0.00    +0.041 C 
BRANCH  52  53
ATOM     53  CG  MET A   3     -29.753 -10.488  63.201  0.00  0.00    +0.060 C 
BRANCH  53  54
ATOM     54  SD  MET A   3     -31.092 -11.569  62.675  0.00  0.00    -0.139 S 
ATOM     55  CE  MET A   3     -31.368 -12.530  64.181  0.00  0.00    +0.069 C 
ENDBRANCH  53  54
ENDBRANCH  52  53
ENDBRANCH  31  52
ENDBRANCH  27  31
ENDBRANCH  26  28
BRANCH  26  56
ATOM     56  CB  GLU A   4     -25.332 -13.065  67.073  0.00  0.00    +0.041 C 
BRANCH  56  57
ATOM     57  CG  GLU A   4     -24.480 -14.153  67.699  0.00  0.00    +0.116 C 
BRANCH  57  58
ATOM     58  CD  GLU A   4     -24.951 -14.480  69.109  0.00  0.00    +0.365 C 
ATOM     59  OE2 GLU A   4     -24.288 -15.285  69.798  0.00  0.00    -0.246 OA
ATOM     60  OE1 GLU A   4     -25.993 -13.928  69.528  0.00  0.00    -0.246 OA
ENDBRANCH  57  58
ENDBRANCH  56  57
ENDBRANCH  26  56
ENDBRANCH  22  26
ENDBRANCH  21  24
BRANCH  21  61
ATOM     61  CB  LEU A   5     -23.115 -15.724  62.295  0.00  0.00    +0.029 C 
BRANCH  61  62
ATOM     62  CG  LEU A   5     -23.150 -16.941  61.359  0.00  0.00    +0.002 C 
ATOM     63  CD2 LEU A   5     -21.869 -17.027  60.533  0.00  0.00    +0.000 C 
ATOM     64  CD1 LEU A   5     -24.350 -16.822  60.442  0.00  0.00    +0.000 C 
ENDBRANCH  61  62
ENDBRANCH  21  61
ENDBRANCH  17  21
ENDBRANCH  16  19
BRANCH  16  65
ATOM     65  CB  MET A   6     -26.905 -18.937  65.419  0.00  0.00    +0.041 C 
BRANCH  65  66
ATOM     66  CG  MET A   6     -27.286 -17.710  66.242  0.00  0.00    +0.060 C 
BRANCH  66  67
ATOM     67  SD  MET A   6     -26.520 -17.724  67.876  0.00  0.00    -0.139 S 
ATOM     68  CE  MET A   6     -27.398 -19.131  68.618  0.00  0.00    +0.069 C 
ENDBRANCH  66  67
ENDBRANCH  65  66
ENDBRANCH  16  65
ENDBRANCH  12  16
ENDBRANCH  10  13
ENDBRANCH   6  10
ENDBRANCH   5   7
ENDBRANCH   1   5
BRANCH   3  69
ATOM     69  CA  GLY A   9     -28.430 -23.167  62.430  0.00  0.00    +0.176 C 
BRANCH  69  70
ATOM     70  C   GLY A   9     -29.657 -23.236  63.325  0.00  0.00    +0.243 C 
ATOM     71  O   GLY A   9     -29.550 -23.134  64.544  0.00  0.00    -0.273 OA
ATOM     72  N   ASP A  10     -30.831 -23.414  62.724  0.00  0.00    -0.296 N 
ATOM     73  H   ASP A  10     -30.866 -23.543  61.693  0.00  0.00    +0.150 HD
BRANCH  72  74
ATOM     74  CA  ASP A  10     -32.069 -23.431  63.494  0.00  0.00    +0.160 C 
BRANCH  74  75
ATOM     75  C   ASP A  10     -32.288 -24.779  64.171  0.00  0.00    +0.241 C 
ATOM     76  N   LEU A  11     -33.083 -24.762  65.234  0.00  0.00    -0.297 N 
ATOM     77  H   LEU A  11     -33.629 -23.900  65.436  0.00  0.00    +0.150 HD
ATOM     78  O   ASP A  10     -31.747 -25.801  63.746  0.00  0.00    -0.273 OA
BRANCH  76  79
ATOM     79  CA  LEU A  11     -33.220 -25.903  66.129  0.00  0.00    +0.149 C 
BRANCH  79  80
ATOM     80  C   LEU A  11     -33.980 -27.071  65.504  0.00  0.00    +0.241 C 
ATOM     81  O   LEU A  11     -33.653 -28.232  65.755  0.00  0.00    -0.273 OA
ATOM     82  N   LYS A  12     -34.993 -26.773  64.694  0.00  0.00    -0.297 N 
ATOM     83  H   LYS A  12     -35.229 -25.777  64.508  0.00  0.00    +0.150 HD
BRANCH  82  84
ATOM     84  CA  LYS A  12     -35.777 -27.835  64.063  0.00  0.00    +0.149 C 
BRANCH  84  85
ATOM     85  C   LYS A  12     -34.940 -28.607  63.045  0.00  0.00    +0.241 C 
ATOM     86  O   LYS A  12     -34.998 -29.835  62.987  0.00  0.00    -0.273 OA
ATOM     87  N   SER A  13     -34.153 -27.893  62.248  0.00  0.00    -0.295 N 
ATOM     88  H   SER A  13     -34.189 -26.854  62.285  0.00  0.00    +0.150 HD
BRANCH  87  89
ATOM     89  CA  SER A  13     -33.237 -28.551  61.320  0.00  0.00    +0.178 C 
BRANCH  89  90
ATOM     90  C   SER A  13     -32.200 -29.361  62.092  0.00  0.00    +0.243 C 
ATOM     91  N   PHE A  14     -31.660 -28.768  63.150  0.00  0.00    -0.297 N 
ATOM     92  H   PHE A  14     -31.973 -27.812  63.416  0.00  0.00    +0.150 HD
ATOM     93  O   SER A  13     -31.904 -30.500  61.745  0.00  0.00    -0.273 OA
BRANCH  91  94
ATOM     94  CA  PHE A  14     -30.638 -29.432  63.944  0.00  0.00    +0.153 C 
BRANCH  94  95
ATOM     95  C   PHE A  14     -31.146 -30.748  64.518  0.00  0.00    +0.241 C 
ATOM     96  N   LEU A  15     -32.359 -30.730  65.058  0.00  0.00    -0.298 N 
ATOM     97  H   LEU A  15     -32.909 -29.848  65.051  0.00  0.00    +0.150 HD
ATOM     98  O   PHE A  14     -30.454 -31.761  64.473  0.00  0.00    -0.273 OA
BRANCH  96  99
ATOM     99  CA  LEU A  15     -32.930 -31.925  65.659  0.00  0.00    +0.137 C 
BRANCH  99 100
ATOM    100  C   LEU A  15     -33.147 -32.993  64.600  0.00  0.00    +0.227 C 
ATOM    101  O   LEU A  15     -32.820 -34.160  64.806  0.00  0.00    -0.286 OA
ENDBRANCH  99 100
BRANCH  99 102
ATOM    102  CB  LEU A  15     -34.258 -31.590  66.332  0.00  0.00    +0.028 C 
BRANCH 102 103
ATOM    103  CG  LEU A  15     -34.135 -30.645  67.525  0.00  0.00    +0.002 C 
ATOM    104  CD2 LEU A  15     -33.402 -31.364  68.655  0.00  0.00    +0.000 C 
ATOM    105  CD1 LEU A  15     -35.514 -30.172  67.965  0.00  0.00    +0.000 C 
ENDBRANCH 102 103
ENDBRANCH  99 102
ENDBRANCH  96  99
ENDBRANCH  94  95
BRANCH  94 106
ATOM    106  CB  PHE A  14     -30.177 -28.523  65.081  0.00  0.00    +0.055 C 
BRANCH 106 107
ATOM    107  CG  PHE A  14     -29.254 -29.194  66.049  0.00  0.00    -0.020 A 
ATOM    108  CD2 PHE A  14     -29.741 -29.738  67.227  0.00  0.00    -0.004 A 
ATOM    109  CE2 PHE A  14     -28.892 -30.370  68.117  0.00  0.00    -0.000 A 
ATOM    110  CZ  PHE A  14     -27.542 -30.464  67.836  0.00  0.00    -0.000 A 
ATOM    111  CE1 PHE A  14     -27.044 -29.924  66.666  0.00  0.00    -0.000 A 
ATOM    112  CD1 PHE A  14     -27.897 -29.293  65.779  0.00  0.00    -0.004 A 
ENDBRANCH 106 107
ENDBRANCH  94 106
ENDBRANCH  91  94
ENDBRANCH  89  90
BRANCH  89 113
ATOM    113  CB  SER A  13     -32.525 -27.520  60.446  0.00  0.00    +0.166 C 
BRANCH 113 114
ATOM    114  OG  SER A  13     -33.463 -26.767  59.706  0.00  0.00    -0.380 OA
ATOM    115  H   SER A  13     -34.072 -26.296  60.329  0.00  0.00    +0.211 HD
ENDBRANCH 113 114
ENDBRANCH  89 113
ENDBRANCH  87  89
ENDBRANCH  84  85
BRANCH  84 116
ATOM    116  CB  LYS A  12     -37.022 -27.259  63.376  0.00  0.00    +0.029 C 
BRANCH 116 117
ATOM    117  CG  LYS A  12     -37.966 -28.328  62.824  0.00  0.00    +0.000 C 
BRANCH 117 118
ATOM    118  CD  LYS A  12     -39.229 -27.720  62.248  0.00  0.00    -0.024 C 
BRANCH 118 119
ATOM    119  CE  LYS A  12     -40.040 -28.747  61.469  0.00  0.00    -0.086 C 
BRANCH 119 120
ATOM    120  NZ  LYS A  12     -40.643 -29.805  62.342  0.00  0.00    +0.380 N 
ATOM    121  HZ1 LYS A  12     -41.279 -29.360  63.035  0.00  0.00    -0.089 HD
ATOM    122  HZ2 LYS A  12     -39.886 -30.314  62.841  0.00  0.00    -0.089 HD
ATOM    123  HZ3 LYS A  12     -41.182 -30.473  61.754  0.00  0.00    -0.089 HD
ENDBRANCH 119 120
ENDBRANCH 118 119
ENDBRANCH 117 118
ENDBRANCH 116 117
ENDBRANCH  84 116
ENDBRANCH  82  84
ENDBRANCH  79  80
BRANCH  79 124
ATOM    124  CB  LEU A  11     -33.915 -25.456  67.422  0.00  0.00    +0.029 C 
BRANCH 124 125
ATOM    125  CG  LEU A  11     -34.338 -26.548  68.405  0.00  0.00    +0.002 C 
ATOM    126  CD2 LEU A  11     -35.023 -25.900  69.605  0.00  0.00    +0.000 C 
ATOM    127  CD1 LEU A  11     -33.132 -27.362  68.849  0.00  0.00    +0.000 C 
ENDBRANCH 124 125
ENDBRANCH  79 124
ENDBRANCH  76  79
ENDBRANCH  74  75
BRANCH  74 128
ATOM    128  CB  ASP A  10     -33.272 -23.086  62.602  0.00  0.00    +0.143 C 
BRANCH 128 129
ATOM    129  CG  ASP A  10     -33.697 -24.240  61.713  0.00  0.00    +0.367 C 
ATOM    130  OD2 ASP A  10     -34.643 -24.966  62.090  0.00  0.00    -0.246 OA
ATOM    131  OD1 ASP A  10     -33.087 -24.418  60.638  0.00  0.00    -0.246 OA
ENDBRANCH 128 129
ENDBRANCH  74 128
ENDBRANCH  72  74
ENDBRANCH  69  70
ENDBRANCH   3  69
TORSDOF 60
REMARK  Name = ../refined-set-2016/4cd0/4cd0_pocket.pdb
REMARK  200 active torsions:
REMARK  status: ('A' for Active; 'I' for Inactive)
REMARK    1  A    between atoms: _1  and  _3
REMARK    2  A    between atoms: _3  and  _4
REMARK    3  A    between atoms: _3  and  _6
REMARK    4  A    between atoms: _6  and  _7
REMARK    5  A    between atoms: _7  and  _8
REMARK    6  A    between atoms: _8  and  _9
REMARK    7  A    between atoms: _18  and  _20
REMARK    8  A    between atoms: _20  and  _21
REMARK    9  A    between atoms: _23  and  _25
REMARK   10  A    between atoms: _25  and  _26
REMARK   11  A    between atoms: _25  and  _28
REMARK   12  A    between atoms: _28  and  _29
REMARK   13  A    between atoms: _32  and  _34
REMARK   14  A    between atoms: _34  and  _35
REMARK   15  A    between atoms: _37  and  _39
REMARK   16  A    between atoms: _39  and  _40
REMARK   17  A    between atoms: _39  and  _42
REMARK   18  A    between atoms: _42  and  _43
REMARK   19  A    between atoms: _48  and  _50
REMARK   20  A    between atoms: _50  and  _51
REMARK   21  A    between atoms: _53  and  _55
REMARK   22  A    between atoms: _55  and  _56
REMARK   23  A    between atoms: _59  and  _61
REMARK   24  A    between atoms: _61  and  _62
REMARK   25  A    between atoms: _61  and  _64
REMARK   26  A    between atoms: _64  and  _65
REMARK   27  A    between atoms: _71  and  _73
REMARK   28  A    between atoms: _73  and  _74
REMARK   29  A    between atoms: _76  and  _78
REMARK   30  A    between atoms: _78  and  _79
REMARK   31  A    between atoms: _78  and  _81
REMARK   32  A    between atoms: _81  and  _82
REMARK   33  A    between atoms: _82  and  _83
REMARK   34  A    between atoms: _86  and  _88
REMARK   35  A    between atoms: _88  and  _89
REMARK   36  A    between atoms: _88  and  _91
REMARK   37  A    between atoms: _94  and  _96
REMARK   38  A    between atoms: _96  and  _97
REMARK   39  A    between atoms: _96  and  _99
REMARK   40  A    between atoms: _99  and  _100
REMARK   41  A    between atoms: _105  and  _106
REMARK   42  A    between atoms: _108  and  _110
REMARK   43  A    between atoms: _110  and  _111
REMARK   44  A    between atoms: _110  and  _113
REMARK   45  A    between atoms: _113  and  _114
REMARK   46  A    between atoms: _114  and  _115
REMARK   47  A    between atoms: _118  and  _120
REMARK   48  A    between atoms: _120  and  _121
REMARK   49  A    between atoms: _120  and  _123
REMARK   50  A    between atoms: _126  and  _128
REMARK   51  A    between atoms: _128  and  _129
REMARK   52  A    between atoms: _132  and  _134
REMARK   53  A    between atoms: _134  and  _135
REMARK   54  A    between atoms: _134  and  _137
REMARK   55  A    between atoms: _140  and  _142
REMARK   56  A    between atoms: _142  and  _143
REMARK   57  A    between atoms: _142  and  _145
REMARK   58  A    between atoms: _145  and  _146
REMARK   59  A    between atoms: _146  and  _147
REMARK   60  A    between atoms: _147  and  _148
REMARK   61  A    between atoms: _148  and  _149
REMARK   62  A    between atoms: _153  and  _155
REMARK   63  A    between atoms: _155  and  _156
REMARK   64  A    between atoms: _155  and  _158
REMARK   65  A    between atoms: _158  and  _159
REMARK   66  A    between atoms: _162  and  _164
REMARK   67  A    between atoms: _164  and  _165
REMARK   68  A    between atoms: _164  and  _167
REMARK   69  A    between atoms: _167  and  _168
REMARK   70  A    between atoms: _168  and  _169
REMARK   71  A    between atoms: _172  and  _174
REMARK   72  A    between atoms: _174  and  _175
REMARK   73  A    between atoms: _174  and  _177
REMARK   74  A    between atoms: _180  and  _182
REMARK   75  A    between atoms: _182  and  _183
REMARK   76  A    between atoms: _182  and  _185
REMARK   77  A    between atoms: _185  and  _186
REMARK   78  A    between atoms: _186  and  _187
REMARK   79  A    between atoms: _187  and  _188
REMARK   80  A    between atoms: _197  and  _199
REMARK   81  A    between atoms: _199  and  _200
REMARK   82  A    between atoms: _199  and  _202
REMARK   83  A    between atoms: _202  and  _203
REMARK   84  A    between atoms: _206  and  _208
REMARK   85  A    between atoms: _208  and  _209
REMARK   86  A    between atoms: _208  and  _211
REMARK   87  A    between atoms: _211  and  _212
REMARK   88  A    between atoms: _215  and  _217
REMARK   89  A    between atoms: _217  and  _218
REMARK   90  A    between atoms: _217  and  _220
REMARK   91  A    between atoms: _220  and  _221
REMARK   92  A    between atoms: _221  and  _222
REMARK   93  A    between atoms: _224  and  _226
REMARK   94  A    between atoms: _226  and  _227
REMARK   95  A    between atoms: _226  and  _229
REMARK   96  A    between atoms: _229  and  _230
REMARK   97  A    between atoms: _230  and  _231
REMARK   98  A    between atoms: _234  and  _236
REMARK   99  A    between atoms: _236  and  _237
REMARK  100  A    between atoms: _236  and  _239
REMARK  101  A    between atoms: _239  and  _240
REMARK  102  A    between atoms: _243  and  _245
REMARK  103  A    between atoms: _245  and  _246
REMARK  104  A    between atoms: _245  and  _248
REMARK  105  A    between atoms: _248  and  _249
REMARK  106  A    between atoms: _249  and  _250
REMARK  107  A    between atoms: _252  and  _254
REMARK  108  A    between atoms: _254  and  _255
REMARK  109  A    between atoms: _258  and  _260
REMARK  110  A    between atoms: _260  and  _261
REMARK  111  A    between atoms: _263  and  _265
REMARK  112  A    between atoms: _265  and  _266
REMARK  113  A    between atoms: _268  and  _270
REMARK  114  A    between atoms: _270  and  _271
REMARK  115  A    between atoms: _270  and  _273
REMARK  116  A    between atoms: _273  and  _274
REMARK  117  A    between atoms: _277  and  _279
REMARK  118  A    between atoms: _279  and  _280
REMARK  119  A    between atoms: _279  and  _282
REMARK  120  A    between atoms: _282  and  _283
REMARK  121  A    between atoms: _286  and  _288
REMARK  122  A    between atoms: _288  and  _289
REMARK  123  A    between atoms: _288  and  _291
REMARK  124  A    between atoms: _291  and  _292
REMARK  125  A    between atoms: _292  and  _293
REMARK  126  A    between atoms: _293  and  _294
REMARK  127  A    between atoms: _294  and  _295
REMARK  128  A    between atoms: _299  and  _301
REMARK  129  A    between atoms: _301  and  _302
REMARK  130  A    between atoms: _301  and  _304
REMARK  131  A    between atoms: _304  and  _305
REMARK  132  A    between atoms: _307  and  _309
REMARK  133  A    between atoms: _309  and  _310
REMARK  134  A    between atoms: _309  and  _312
REMARK  135  A    between atoms: _312  and  _313
REMARK  136  A    between atoms: _319  and  _321
REMARK  137  A    between atoms: _321  and  _322
REMARK  138  A    between atoms: _321  and  _324
REMARK  139  A    between atoms: _324  and  _325
REMARK  140  A    between atoms: _328  and  _330
REMARK  141  A    between atoms: _330  and  _331
REMARK  142  A    between atoms: _330  and  _333
REMARK  143  A    between atoms: _333  and  _334
REMARK  144  A    between atoms: _334  and  _335
REMARK  145  A    between atoms: _338  and  _340
REMARK  146  A    between atoms: _340  and  _341
REMARK  147  A    between atoms: _340  and  _343
REMARK  148  A    between atoms: _343  and  _344
REMARK  149  A    between atoms: _349  and  _351
REMARK  150  A    between atoms: _351  and  _352
REMARK  151  A    between atoms: _355  and  _357
REMARK  152  A    between atoms: _357  and  _358
REMARK  153  A    between atoms: _361  and  _363
REMARK  154  A    between atoms: _363  and  _364
REMARK  155  A    between atoms: _363  and  _366
REMARK  156  A    between atoms: _366  and  _367
REMARK  157  A    between atoms: _367  and  _368
REMARK  158  A    between atoms: _368  and  _369
REMARK  159  A    between atoms: _378  and  _380
REMARK  160  A    between atoms: _380  and  _381
REMARK  161  A    between atoms: _380  and  _383
REMARK  162  A    between atoms: _383  and  _384
REMARK  163  A    between atoms: _389  and  _391
REMARK  164  A    between atoms: _391  and  _392
REMARK  165  A    between atoms: _391  and  _394
REMARK  166  A    between atoms: _396  and  _398
REMARK  167  A    between atoms: _398  and  _399
REMARK  168  A    between atoms: _398  and  _401
REMARK  169  A    between atoms: _401  and  _402
REMARK  170  A    between atoms: _405  and  _407
REMARK  171  A    between atoms: _407  and  _408
REMARK  172  A    between atoms: _407  and  _410
REMARK  173  A    between atoms: _410  and  _411
REMARK  174  A    between atoms: _414  and  _416
REMARK  175  A    between atoms: _416  and  _417
REMARK  176  A    between atoms: _416  and  _419
REMARK  177  A    between atoms: _419  and  _420
REMARK  178  A    between atoms: _423  and  _425
REMARK  179  A    between atoms: _425  and  _426
REMARK  180  A    between atoms: _425  and  _428
REMARK  181  A    between atoms: _428  and  _429
REMARK  182  A    between atoms: _429  and  _430
REMARK  183  A    between atoms: _430  and  _431
REMARK  184  A    between atoms: _431  and  _432
REMARK  185  A    between atoms: _436  and  _438
REMARK  186  A    between atoms: _438  and  _439
REMARK  187  A    between atoms: _438  and  _441
REMARK  188  A    between atoms: _441  and  _442
REMARK  189  A    between atoms: _445  and  _447
REMARK  190  A    between atoms: _447  and  _448
REMARK  191  A    between atoms: _450  and  _452
REMARK  192  A    between atoms: _452  and  _453
REMARK  193  A    between atoms: _452  and  _455
REMARK  194  A    between atoms: _455  and  _456
REMARK  195  A    between atoms: _459  and  _461
REMARK  196  A    between atoms: _461  and  _462
REMARK  197  A    between atoms: _461  and  _464
REMARK  198  A    between atoms: _464  and  _465
REMARK  199  A    between atoms: _471  and  _473
REMARK  200  A    between atoms: _473  and  _474
REMARK                            x       y       z     vdW  Elec       q    Type
REMARK                         _______ _______ _______ _____ _____    ______ ____
ROOT
ATOM      1  CA  GLU A   1     -30.435 -33.711  61.050  0.00  0.00    +0.134 C 
ENDROOT
BRANCH   1   2
ATOM      2  N   GLU A   1     -31.692 -33.281  61.652  0.00  0.00    -0.239 NA
ATOM      3  H   GLU A   1     -31.795 -32.294  61.962  0.00  0.00    +0.142 HD
ENDBRANCH   1   2
BRANCH   1   4
ATOM      4  C   GLU A   1     -29.501 -34.409  62.033  0.00  0.00    +0.224 C 
ATOM      5  O   GLU A   1     -28.553 -35.078  61.623  0.00  0.00    -0.287 OA
ENDBRANCH   1   4
BRANCH   1   6
ATOM      6  CB  GLU A   1     -29.717 -32.512  60.426  0.00  0.00    +0.037 C 
BRANCH   6   7
ATOM      7  CG  GLU A   1     -30.506 -31.839  59.306  0.00  0.00    +0.116 C 
BRANCH   7   8
ATOM      8  CD  GLU A   1     -29.748 -30.692  58.662  0.00  0.00    +0.365 C 
ATOM      9  OE2 GLU A   1     -28.517 -30.606  58.865  0.00  0.00    -0.246 OA
ATOM     10  OE1 GLU A   1     -30.383 -29.877  57.954  0.00  0.00    -0.246 OA
ENDBRANCH   7   8
ENDBRANCH   6   7
ENDBRANCH   1   6
TORSDOF 5
REMARK  Name = ../refined-set-2016/4cd0/4cd0_pocket.pdb
REMARK  200 active torsions:
REMARK  status: ('A' for Active; 'I' for Inactive)
REMARK    1  A    between atoms: _1  and  _3
REMARK    2  A    between atoms: _3  and  _4
REMARK    3  A    between atoms: _3  and  _6
REMARK    4  A    between atoms: _6  and  _7
REMARK    5  A    between atoms: _7  and  _8
REMARK    6  A    between atoms: _8  and  _9
REMARK    7  A    between atoms: _18  and  _20
REMARK    8  A    between atoms: _20  and  _21
REMARK    9  A    between atoms: _23  and  _25
REMARK   10  A    between atoms: _25  and  _26
REMARK   11  A    between atoms: _25  and  _28
REMARK   12  A    between atoms: _28  and  _29
REMARK   13  A    between atoms: _32  and  _34
REMARK   14  A    between atoms: _34  and  _35
REMARK   15  A    between atoms: _37  and  _39
REMARK   16  A    between atoms: _39  and  _40
REMARK   17  A    between atoms: _39  and  _42
REMARK   18  A    between atoms: _42  and  _43
REMARK   19  A    between atoms: _48  and  _50
REMARK   20  A    between atoms: _50  and  _51
REMARK   21  A    between atoms: _53  and  _55
REMARK   22  A    between atoms: _55  and  _56
REMARK   23  A    between atoms: _59  and  _61
REMARK   24  A    between atoms: _61  and  _62
REMARK   25  A    between atoms: _61  and  _64
REMARK   26  A    between atoms: _64  and  _65
REMARK   27  A    between atoms: _71  and  _73
REMARK   28  A    between atoms: _73  and  _74
REMARK   29  A    between atoms: _76  and  _78
REMARK   30  A    between atoms: _78  and  _79
REMARK   31  A    between atoms: _78  and  _81
REMARK   32  A    between atoms: _81  and  _82
REMARK   33  A    between atoms: _82  and  _83
REMARK   34  A    between atoms: _86  and  _88
REMARK   35  A    between atoms: _88  and  _89
REMARK   36  A    between atoms: _88  and  _91
REMARK   37  A    between atoms: _94  and  _96
REMARK   38  A    between atoms: _96  and  _97
REMARK   39  A    between atoms: _96  and  _99
REMARK   40  A    between atoms: _99  and  _100
REMARK   41  A    between atoms: _105  and  _106
REMARK   42  A    between atoms: _108  and  _110
REMARK   43  A    between atoms: _110  and  _111
REMARK   44  A    between atoms: _110  and  _113
REMARK   45  A    between atoms: _113  and  _114
REMARK   46  A    between atoms: _114  and  _115
REMARK   47  A    between atoms: _118  and  _120
REMARK   48  A    between atoms: _120  and  _121
REMARK   49  A    between atoms: _120  and  _123
REMARK   50  A    between atoms: _126  and  _128
REMARK   51  A    between atoms: _128  and  _129
REMARK   52  A    between atoms: _132  and  _134
REMARK   53  A    between atoms: _134  and  _135
REMARK   54  A    between atoms: _134  and  _137
REMARK   55  A    between atoms: _140  and  _142
REMARK   56  A    between atoms: _142  and  _143
REMARK   57  A    between atoms: _142  and  _145
REMARK   58  A    between atoms: _145  and  _146
REMARK   59  A    between atoms: _146  and  _147
REMARK   60  A    between atoms: _147  and  _148
REMARK   61  A    between atoms: _148  and  _149
REMARK   62  A    between atoms: _153  and  _155
REMARK   63  A    between atoms: _155  and  _156
REMARK   64  A    between atoms: _155  and  _158
REMARK   65  A    between atoms: _158  and  _159
REMARK   66  A    between atoms: _162  and  _164
REMARK   67  A    between atoms: _164  and  _165
REMARK   68  A    between atoms: _164  and  _167
REMARK   69  A    between atoms: _167  and  _168
REMARK   70  A    between atoms: _168  and  _169
REMARK   71  A    between atoms: _172  and  _174
REMARK   72  A    between atoms: _174  and  _175
REMARK   73  A    between atoms: _174  and  _177
REMARK   74  A    between atoms: _180  and  _182
REMARK   75  A    between atoms: _182  and  _183
REMARK   76  A    between atoms: _182  and  _185
REMARK   77  A    between atoms: _185  and  _186
REMARK   78  A    between atoms: _186  and  _187
REMARK   79  A    between atoms: _187  and  _188
REMARK   80  A    between atoms: _197  and  _199
REMARK   81  A    between atoms: _199  and  _200
REMARK   82  A    between atoms: _199  and  _202
REMARK   83  A    between atoms: _202  and  _203
REMARK   84  A    between atoms: _206  and  _208
REMARK   85  A    between atoms: _208  and  _209
REMARK   86  A    between atoms: _208  and  _211
REMARK   87  A    between atoms: _211  and  _212
REMARK   88  A    between atoms: _215  and  _217
REMARK   89  A    between atoms: _217  and  _218
REMARK   90  A    between atoms: _217  and  _220
REMARK   91  A    between atoms: _220  and  _221
REMARK   92  A    between atoms: _221  and  _222
REMARK   93  A    between atoms: _224  and  _226
REMARK   94  A    between atoms: _226  and  _227
REMARK   95  A    between atoms: _226  and  _229
REMARK   96  A    between atoms: _229  and  _230
REMARK   97  A    between atoms: _230  and  _231
REMARK   98  A    between atoms: _234  and  _236
REMARK   99  A    between atoms: _236  and  _237
REMARK  100  A    between atoms: _236  and  _239
REMARK  101  A    between atoms: _239  and  _240
REMARK  102  A    between atoms: _243  and  _245
REMARK  103  A    between atoms: _245  and  _246
REMARK  104  A    between atoms: _245  and  _248
REMARK  105  A    between atoms: _248  and  _249
REMARK  106  A    between atoms: _249  and  _250
REMARK  107  A    between atoms: _252  and  _254
REMARK  108  A    between atoms: _254  and  _255
REMARK  109  A    between atoms: _258  and  _260
REMARK  110  A    between atoms: _260  and  _261
REMARK  111  A    between atoms: _263  and  _265
REMARK  112  A    between atoms: _265  and  _266
REMARK  113  A    between atoms: _268  and  _270
REMARK  114  A    between atoms: _270  and  _271
REMARK  115  A    between atoms: _270  and  _273
REMARK  116  A    between atoms: _273  and  _274
REMARK  117  A    between atoms: _277  and  _279
REMARK  118  A    between atoms: _279  and  _280
REMARK  119  A    between atoms: _279  and  _282
REMARK  120  A    between atoms: _282  and  _283
REMARK  121  A    between atoms: _286  and  _288
REMARK  122  A    between atoms: _288  and  _289
REMARK  123  A    between atoms: _288  and  _291
REMARK  124  A    between atoms: _291  and  _292
REMARK  125  A    between atoms: _292  and  _293
REMARK  126  A    between atoms: _293  and  _294
REMARK  127  A    between atoms: _294  and  _295
REMARK  128  A    between atoms: _299  and  _301
REMARK  129  A    between atoms: _301  and  _302
REMARK  130  A    between atoms: _301  and  _304
REMARK  131  A    between atoms: _304  and  _305
REMARK  132  A    between atoms: _307  and  _309
REMARK  133  A    between atoms: _309  and  _310
REMARK  134  A    between atoms: _309  and  _312
REMARK  135  A    between atoms: _312  and  _313
REMARK  136  A    between atoms: _319  and  _321
REMARK  137  A    between atoms: _321  and  _322
REMARK  138  A    between atoms: _321  and  _324
REMARK  139  A    between atoms: _324  and  _325
REMARK  140  A    between atoms: _328  and  _330
REMARK  141  A    between atoms: _330  and  _331
REMARK  142  A    between atoms: _330  and  _333
REMARK  143  A    between atoms: _333  and  _334
REMARK  144  A    between atoms: _334  and  _335
REMARK  145  A    between atoms: _338  and  _340
REMARK  146  A    between atoms: _340  and  _341
REMARK  147  A    between atoms: _340  and  _343
REMARK  148  A    between atoms: _343  and  _344
REMARK  149  A    between atoms: _349  and  _351
REMARK  150  A    between atoms: _351  and  _352
REMARK  151  A    between atoms: _355  and  _357
REMARK  152  A    between atoms: _357  and  _358
REMARK  153  A    between atoms: _361  and  _363
REMARK  154  A    between atoms: _363  and  _364
REMARK  155  A    between atoms: _363  and  _366
REMARK  156  A    between atoms: _366  and  _367
REMARK  157  A    between atoms: _367  and  _368
REMARK  158  A    between atoms: _368  and  _369
REMARK  159  A    between atoms: _378  and  _380
REMARK  160  A    between atoms: _380  and  _381
REMARK  161  A    between atoms: _380  and  _383
REMARK  162  A    between atoms: _383  and  _384
REMARK  163  A    between atoms: _389  and  _391
REMARK  164  A    between atoms: _391  and  _392
REMARK  165  A    between atoms: _391  and  _394
REMARK  166  A    between atoms: _396  and  _398
REMARK  167  A    between atoms: _398  and  _399
REMARK  168  A    between atoms: _398  and  _401
REMARK  169  A    between atoms: _401  and  _402
REMARK  170  A    between atoms: _405  and  _407
REMARK  171  A    between atoms: _407  and  _408
REMARK  172  A    between atoms: _407  and  _410
REMARK  173  A    between atoms: _410  and  _411
REMARK  174  A    between atoms: _414  and  _416
REMARK  175  A    between atoms: _416  and  _417
REMARK  176  A    between atoms: _416  and  _419
REMARK  177  A    between atoms: _419  and  _420
REMARK  178  A    between atoms: _423  and  _425
REMARK  179  A    between atoms: _425  and  _426
REMARK  180  A    between atoms: _425  and  _428
REMARK  181  A    between atoms: _428  and  _429
REMARK  182  A    between atoms: _429  and  _430
REMARK  183  A    between atoms: _430  and  _431
REMARK  184  A    between atoms: _431  and  _432
REMARK  185  A    between atoms: _436  and  _438
REMARK  186  A    between atoms: _438  and  _439
REMARK  187  A    between atoms: _438  and  _441
REMARK  188  A    between atoms: _441  and  _442
REMARK  189  A    between atoms: _445  and  _447
REMARK  190  A    between atoms: _447  and  _448
REMARK  191  A    between atoms: _450  and  _452
REMARK  192  A    between atoms: _452  and  _453
REMARK  193  A    between atoms: _452  and  _455
REMARK  194  A    between atoms: _455  and  _456
REMARK  195  A    between atoms: _459  and  _461
REMARK  196  A    between atoms: _461  and  _462
REMARK  197  A    between atoms: _461  and  _464
REMARK  198  A    between atoms: _464  and  _465
REMARK  199  A    between atoms: _471  and  _473
REMARK  200  A    between atoms: _473  and  _474
REMARK                            x       y       z     vdW  Elec       q    Type
REMARK                         _______ _______ _______ _____ _____    ______ ____
ROOT
ATOM      1  CB  HIS A   1     -42.087 -14.501  72.376  0.00  0.00    +0.072 C 
ENDROOT
BRANCH   1   2
ATOM      2  CG  HIS A   1     -41.343 -14.853  71.126  0.00  0.00    +0.082 A 
ATOM      3  CD2 HIS A   1     -40.117 -14.482  70.683  0.00  0.00    +0.115 A 
ATOM      4  NE2 HIS A   1     -39.941 -15.062  69.451  0.00  0.00    -0.221 NA
ATOM      5  CE1 HIS A   1     -41.018 -15.766  69.149  0.00  0.00    +0.199 A 
ATOM      6  ND1 HIS A   1     -41.881 -15.656  70.144  0.00  0.00    -0.227 NA
ENDBRANCH   1   2
BRANCH   1   7
ATOM      7  CA  HIS A   1     -43.082 -13.360  72.184  0.00  0.00    +0.139 C 
BRANCH   7   8
ATOM      8  N   HIS A   1     -43.691 -12.991  73.452  0.00  0.00    -0.239 NA
ATOM      9  H   HIS A   1     -43.676 -13.661  74.248  0.00  0.00    +0.142 HD
ENDBRANCH   7   8
BRANCH   7  10
ATOM     10  C   HIS A   1     -44.122 -13.762  71.146  0.00  0.00    +0.224 C 
ATOM     11  O   HIS A   1     -44.058 -13.319  70.000  0.00  0.00    -0.287 OA
ENDBRANCH   7  10
ENDBRANCH   1   7
TORSDOF 4
REMARK  Name = ../refined-set-2016/4cd0/4cd0_pocket.pdb
REMARK  200 active torsions:
REMARK  status: ('A' for Active; 'I' for Inactive)
REMARK    1  A    between atoms: _1  and  _3
REMARK    2  A    between atoms: _3  and  _4
REMARK    3  A    between atoms: _3  and  _6
REMARK    4  A    between atoms: _6  and  _7
REMARK    5  A    between atoms: _7  and  _8
REMARK    6  A    between atoms: _8  and  _9
REMARK    7  A    between atoms: _18  and  _20
REMARK    8  A    between atoms: _20  and  _21
REMARK    9  A    between atoms: _23  and  _25
REMARK   10  A    between atoms: _25  and  _26
REMARK   11  A    between atoms: _25  and  _28
REMARK   12  A    between atoms: _28  and  _29
REMARK   13  A    between atoms: _32  and  _34
REMARK   14  A    between atoms: _34  and  _35
REMARK   15  A    between atoms: _37  and  _39
REMARK   16  A    between atoms: _39  and  _40
REMARK   17  A    between atoms: _39  and  _42
REMARK   18  A    between atoms: _42  and  _43
REMARK   19  A    between atoms: _48  and  _50
REMARK   20  A    between atoms: _50  and  _51
REMARK   21  A    between atoms: _53  and  _55
REMARK   22  A    between atoms: _55  and  _56
REMARK   23  A    between atoms: _59  and  _61
REMARK   24  A    between atoms: _61  and  _62
REMARK   25  A    between atoms: _61  and  _64
REMARK   26  A    between atoms: _64  and  _65
REMARK   27  A    between atoms: _71  and  _73
REMARK   28  A    between atoms: _73  and  _74
REMARK   29  A    between atoms: _76  and  _78
REMARK   30  A    between atoms: _78  and  _79
REMARK   31  A    between atoms: _78  and  _81
REMARK   32  A    between atoms: _81  and  _82
REMARK   33  A    between atoms: _82  and  _83
REMARK   34  A    between atoms: _86  and  _88
REMARK   35  A    between atoms: _88  and  _89
REMARK   36  A    between atoms: _88  and  _91
REMARK   37  A    between atoms: _94  and  _96
REMARK   38  A    between atoms: _96  and  _97
REMARK   39  A    between atoms: _96  and  _99
REMARK   40  A    between atoms: _99  and  _100
REMARK   41  A    between atoms: _105  and  _106
REMARK   42  A    between atoms: _108  and  _110
REMARK   43  A    between atoms: _110  and  _111
REMARK   44  A    between atoms: _110  and  _113
REMARK   45  A    between atoms: _113  and  _114
REMARK   46  A    between atoms: _114  and  _115
REMARK   47  A    between atoms: _118  and  _120
REMARK   48  A    between atoms: _120  and  _121
REMARK   49  A    between atoms: _120  and  _123
REMARK   50  A    between atoms: _126  and  _128
REMARK   51  A    between atoms: _128  and  _129
REMARK   52  A    between atoms: _132  and  _134
REMARK   53  A    between atoms: _134  and  _135
REMARK   54  A    between atoms: _134  and  _137
REMARK   55  A    between atoms: _140  and  _142
REMARK   56  A    between atoms: _142  and  _143
REMARK   57  A    between atoms: _142  and  _145
REMARK   58  A    between atoms: _145  and  _146
REMARK   59  A    between atoms: _146  and  _147
REMARK   60  A    between atoms: _147  and  _148
REMARK   61  A    between atoms: _148  and  _149
REMARK   62  A    between atoms: _153  and  _155
REMARK   63  A    between atoms: _155  and  _156
REMARK   64  A    between atoms: _155  and  _158
REMARK   65  A    between atoms: _158  and  _159
REMARK   66  A    between atoms: _162  and  _164
REMARK   67  A    between atoms: _164  and  _165
REMARK   68  A    between atoms: _164  and  _167
REMARK   69  A    between atoms: _167  and  _168
REMARK   70  A    between atoms: _168  and  _169
REMARK   71  A    between atoms: _172  and  _174
REMARK   72  A    between atoms: _174  and  _175
REMARK   73  A    between atoms: _174  and  _177
REMARK   74  A    between atoms: _180  and  _182
REMARK   75  A    between atoms: _182  and  _183
REMARK   76  A    between atoms: _182  and  _185
REMARK   77  A    between atoms: _185  and  _186
REMARK   78  A    between atoms: _186  and  _187
REMARK   79  A    between atoms: _187  and  _188
REMARK   80  A    between atoms: _197  and  _199
REMARK   81  A    between atoms: _199  and  _200
REMARK   82  A    between atoms: _199  and  _202
REMARK   83  A    between atoms: _202  and  _203
REMARK   84  A    between atoms: _206  and  _208
REMARK   85  A    between atoms: _208  and  _209
REMARK   86  A    between atoms: _208  and  _211
REMARK   87  A    between atoms: _211  and  _212
REMARK   88  A    between atoms: _215  and  _217
REMARK   89  A    between atoms: _217  and  _218
REMARK   90  A    between atoms: _217  and  _220
REMARK   91  A    between atoms: _220  and  _221
REMARK   92  A    between atoms: _221  and  _222
REMARK   93  A    between atoms: _224  and  _226
REMARK   94  A    between atoms: _226  and  _227
REMARK   95  A    between atoms: _226  and  _229
REMARK   96  A    between atoms: _229  and  _230
REMARK   97  A    between atoms: _230  and  _231
REMARK   98  A    between atoms: _234  and  _236
REMARK   99  A    between atoms: _236  and  _237
REMARK  100  A    between atoms: _236  and  _239
REMARK  101  A    between atoms: _239  and  _240
REMARK  102  A    between atoms: _243  and  _245
REMARK  103  A    between atoms: _245  and  _246
REMARK  104  A    between atoms: _245  and  _248
REMARK  105  A    between atoms: _248  and  _249
REMARK  106  A    between atoms: _249  and  _250
REMARK  107  A    between atoms: _252  and  _254
REMARK  108  A    between atoms: _254  and  _255
REMARK  109  A    between atoms: _258  and  _260
REMARK  110  A    between atoms: _260  and  _261
REMARK  111  A    between atoms: _263  and  _265
REMARK  112  A    between atoms: _265  and  _266
REMARK  113  A    between atoms: _268  and  _270
REMARK  114  A    between atoms: _270  and  _271
REMARK  115  A    between atoms: _270  and  _273
REMARK  116  A    between atoms: _273  and  _274
REMARK  117  A    between atoms: _277  and  _279
REMARK  118  A    between atoms: _279  and  _280
REMARK  119  A    between atoms: _279  and  _282
REMARK  120  A    between atoms: _282  and  _283
REMARK  121  A    between atoms: _286  and  _288
REMARK  122  A    between atoms: _288  and  _289
REMARK  123  A    between atoms: _288  and  _291
REMARK  124  A    between atoms: _291  and  _292
REMARK  125  A    between atoms: _292  and  _293
REMARK  126  A    between atoms: _293  and  _294
REMARK  127  A    between atoms: _294  and  _295
REMARK  128  A    between atoms: _299  and  _301
REMARK  129  A    between atoms: _301  and  _302
REMARK  130  A    between atoms: _301  and  _304
REMARK  131  A    between atoms: _304  and  _305
REMARK  132  A    between atoms: _307  and  _309
REMARK  133  A    between atoms: _309  and  _310
REMARK  134  A    between atoms: _309  and  _312
REMARK  135  A    between atoms: _312  and  _313
REMARK  136  A    between atoms: _319  and  _321
REMARK  137  A    between atoms: _321  and  _322
REMARK  138  A    between atoms: _321  and  _324
REMARK  139  A    between atoms: _324  and  _325
REMARK  140  A    between atoms: _328  and  _330
REMARK  141  A    between atoms: _330  and  _331
REMARK  142  A    between atoms: _330  and  _333
REMARK  143  A    between atoms: _333  and  _334
REMARK  144  A    between atoms: _334  and  _335
REMARK  145  A    between atoms: _338  and  _340
REMARK  146  A    between atoms: _340  and  _341
REMARK  147  A    between atoms: _340  and  _343
REMARK  148  A    between atoms: _343  and  _344
REMARK  149  A    between atoms: _349  and  _351
REMARK  150  A    between atoms: _351  and  _352
REMARK  151  A    between atoms: _355  and  _357
REMARK  152  A    between atoms: _357  and  _358
REMARK  153  A    between atoms: _361  and  _363
REMARK  154  A    between atoms: _363  and  _364
REMARK  155  A    between atoms: _363  and  _366
REMARK  156  A    between atoms: _366  and  _367
REMARK  157  A    between atoms: _367  and  _368
REMARK  158  A    between atoms: _368  and  _369
REMARK  159  A    between atoms: _378  and  _380
REMARK  160  A    between atoms: _380  and  _381
REMARK  161  A    between atoms: _380  and  _383
REMARK  162  A    between atoms: _383  and  _384
REMARK  163  A    between atoms: _389  and  _391
REMARK  164  A    between atoms: _391  and  _392
REMARK  165  A    between atoms: _391  and  _394
REMARK  166  A    between atoms: _396  and  _398
REMARK  167  A    between atoms: _398  and  _399
REMARK  168  A    between atoms: _398  and  _401
REMARK  169  A    between atoms: _401  and  _402
REMARK  170  A    between atoms: _405  and  _407
REMARK  171  A    between atoms: _407  and  _408
REMARK  172  A    between atoms: _407  and  _410
REMARK  173  A    between atoms: _410  and  _411
REMARK  174  A    between atoms: _414  and  _416
REMARK  175  A    between atoms: _416  and  _417
REMARK  176  A    between atoms: _416  and  _419
REMARK  177  A    between atoms: _419  and  _420
REMARK  178  A    between atoms: _423  and  _425
REMARK  179  A    between atoms: _425  and  _426
REMARK  180  A    between atoms: _425  and  _428
REMARK  181  A    between atoms: _428  and  _429
REMARK  182  A    between atoms: _429  and  _430
REMARK  183  A    between atoms: _430  and  _431
REMARK  184  A    between atoms: _431  and  _432
REMARK  185  A    between atoms: _436  and  _438
REMARK  186  A    between atoms: _438  and  _439
REMARK  187  A    between atoms: _438  and  _441
REMARK  188  A    between atoms: _441  and  _442
REMARK  189  A    between atoms: _445  and  _447
REMARK  190  A    between atoms: _447  and  _448
REMARK  191  A    between atoms: _450  and  _452
REMARK  192  A    between atoms: _452  and  _453
REMARK  193  A    between atoms: _452  and  _455
REMARK  194  A    between atoms: _455  and  _456
REMARK  195  A    between atoms: _459  and  _461
REMARK  196  A    between atoms: _461  and  _462
REMARK  197  A    between atoms: _461  and  _464
REMARK  198  A    between atoms: _464  and  _465
REMARK  199  A    between atoms: _471  and  _473
REMARK  200  A    between atoms: _473  and  _474
REMARK                            x       y       z     vdW  Elec       q    Type
REMARK                         _______ _______ _______ _____ _____    ______ ____
ROOT
ATOM      1  CA  ASN A   4     -37.525 -19.678  65.753  0.00  0.00    +0.158 C 
ENDROOT
BRANCH   1   3
ATOM      2  C   ARG A   3     -37.645 -21.545  64.208  0.00  0.00    +0.241 C 
ATOM      3  N   ASN A   4     -37.956 -21.026  65.394  0.00  0.00    -0.297 N 
ATOM      4  H   ASN A   4     -38.511 -21.586  66.071  0.00  0.00    +0.150 HD
ATOM      5  O   ARG A   3     -36.954 -20.948  63.381  0.00  0.00    -0.273 OA
BRANCH   2   6
ATOM      6  CA  ARG A   3     -38.189 -22.939  63.900  0.00  0.00    +0.149 C 
BRANCH   6   9
ATOM      7  C   ALA A   2     -37.748 -23.962  66.084  0.00  0.00    +0.241 C 
ATOM      8  O   ALA A   2     -36.562 -23.637  66.059  0.00  0.00    -0.273 OA
ATOM      9  N   ARG A   3     -38.607 -23.654  65.112  0.00  0.00    -0.297 N 
ATOM     10  H   ARG A   3     -39.605 -23.929  65.216  0.00  0.00    +0.150 HD
BRANCH   7  11
ATOM     11  CA  ALA A   2     -38.300 -24.748  67.273  0.00  0.00    +0.149 C 
ATOM     12  CB  ALA A   2     -38.333 -26.238  66.946  0.00  0.00    +0.031 C 
BRANCH  11  15
ATOM     13  C   ALA A   1     -39.854 -23.007  67.944  0.00  0.00    +0.238 C 
ATOM     14  O   ALA A   1     -38.993 -22.137  67.841  0.00  0.00    -0.274 OA
ATOM     15  N   ALA A   2     -39.626 -24.286  67.658  0.00  0.00    -0.297 N 
ATOM     16  H   ALA A   2     -40.409 -24.968  67.710  0.00  0.00    +0.150 HD
BRANCH  13  17
ATOM     17  CA  ALA A   1     -41.262 -22.650  68.412  0.00  0.00    +0.145 C 
ATOM     18  CB  ALA A   1     -42.176 -22.434  67.196  0.00  0.00    +0.028 C 
BRANCH  17  19
ATOM     19  N   ALA A   1     -41.216 -21.439  69.234  0.00  0.00    -0.238 NA
ATOM     20  H   ALA A   1     -40.321 -20.914  69.306  0.00  0.00    +0.142 HD
ENDBRANCH  17  19
ENDBRANCH  13  17
ENDBRANCH  11  15
ENDBRANCH   7  11
ENDBRANCH   6   9
BRANCH   6  21
ATOM     21  CB  ARG A   3     -39.360 -22.804  62.920  0.00  0.00    +0.033 C 
BRANCH  21  22
ATOM     22  CG  ARG A   3     -40.488 -21.924  63.445  0.00  0.00    +0.045 C 
BRANCH  22  23
ATOM     23  CD  ARG A   3     -41.704 -21.879  62.509  0.00  0.00    +0.174 C 
BRANCH  23  24
ATOM     24  NE  ARG A   3     -42.824 -21.188  63.152  0.00  0.00    -0.265 N 
ATOM     25  CZ  ARG A   3     -43.743 -21.795  63.899  0.00  0.00    +0.342 C 
ATOM     26  NH2 ARG A   3     -44.710 -21.095  64.476  0.00  0.00    -0.292 N 
ATOM     27 HH21 ARG A   3     -45.424 -21.577  65.058  0.00  0.00    +0.255 HD
ATOM     28 HH22 ARG A   3     -44.754 -20.064  64.346  0.00  0.00    +0.255 HD
ATOM     29  NH1 ARG A   3     -43.680 -23.106  64.090  0.00  0.00    -0.292 N 
ATOM     30 HH11 ARG A   3     -44.398 -23.582  64.674  0.00  0.00    +0.255 HD
ATOM     31 HH12 ARG A   3     -42.913 -23.658  63.656  0.00  0.00    +0.255 HD
ATOM     32  HE  ARG A   3     -42.906 -20.160  63.017  0.00  0.00    +0.259 HD
ENDBRANCH  23  24
ENDBRANCH  22  23
ENDBRANCH  21  22
ENDBRANCH   6  21
ENDBRANCH   2   6
ENDBRANCH   1   3
BRANCH   1  33
ATOM     33  C   ASN A   4     -36.358 -19.673  66.736  0.00  0.00    +0.241 C 
ATOM     34  O   ASN A   4     -35.976 -18.625  67.253  0.00  0.00    -0.273 OA
ATOM     35  N   CYS A   5     -35.785 -20.849  66.975  0.00  0.00    -0.296 N 
ATOM     36  H   CYS A   5     -36.168 -21.702  66.520  0.00  0.00    +0.150 HD
BRANCH  35  37
ATOM     37  CA  CYS A   5     -34.633 -20.970  67.859  0.00  0.00    +0.160 C 
BRANCH  37  38
ATOM     38  C   CYS A   5     -33.372 -21.319  67.077  0.00  0.00    +0.242 C 
ATOM     39  N   LEU A   6     -32.232 -20.818  67.546  0.00  0.00    -0.297 N 
ATOM     40  H   LEU A   6     -32.246 -20.273  68.431  0.00  0.00    +0.150 HD
ATOM     41  O   CYS A   5     -33.432 -22.027  66.072  0.00  0.00    -0.273 OA
BRANCH  39  42
ATOM     42  CA  LEU A   6     -30.962 -21.012  66.853  0.00  0.00    +0.149 C 
BRANCH  42  43
ATOM     43  C   LEU A   6     -29.899 -21.585  67.783  0.00  0.00    +0.241 C 
ATOM     44  O   LEU A   6     -29.998 -21.464  69.009  0.00  0.00    -0.273 OA
ATOM     45  N   LEU A   7     -28.881 -22.207  67.192  0.00  0.00    -0.297 N 
ATOM     46  H   LEU A   7     -28.865 -22.275  66.154  0.00  0.00    +0.150 HD
BRANCH  45  47
ATOM     47  CA  LEU A   7     -27.784 -22.798  67.958  0.00  0.00    +0.149 C 
BRANCH  47  48
ATOM     48  C   LEU A   7     -26.427 -22.195  67.593  0.00  0.00    +0.241 C 
ATOM     49  N   THR A   8     -25.592 -21.957  68.602  0.00  0.00    -0.296 N 
ATOM     50  H   THR A   8     -25.876 -22.214  69.569  0.00  0.00    +0.150 HD
ATOM     51  O   LEU A   7     -26.141 -21.958  66.420  0.00  0.00    -0.273 OA
BRANCH  49  52
ATOM     52  CA  THR A   8     -24.287 -21.343  68.380  0.00  0.00    +0.164 C 
BRANCH  52  53
ATOM     53  C   THR A   8     -23.374 -22.268  67.574  0.00  0.00    +0.229 C 
ATOM     54  O   THR A   8     -22.638 -21.816  66.695  0.00  0.00    -0.286 OA
ENDBRANCH  52  53
BRANCH  52  55
ATOM     55  CB  THR A   8     -23.596 -21.002  69.710  0.00  0.00    +0.136 C 
ATOM     56  CG2 THR A   8     -24.325 -19.866  70.416  0.00  0.00    +0.034 C 
BRANCH  55  57
ATOM     57  OG1 THR A   8     -23.572 -22.162  70.551  0.00  0.00    -0.382 OA
ATOM     58  HG1 THR A   8     -23.126 -21.939  71.406  0.00  0.00    +0.210 HD
ENDBRANCH  55  57
ENDBRANCH  52  55
ENDBRANCH  49  52
ENDBRANCH  47  48
BRANCH  47  59
ATOM     59  CB  LEU A   7     -27.751 -24.307  67.727  0.00  0.00    +0.029 C 
BRANCH  59  60
ATOM     60  CG  LEU A   7     -28.967 -25.042  68.293  0.00  0.00    +0.002 C 
ATOM     61  CD2 LEU A   7     -28.845 -25.131  69.804  0.00  0.00    +0.000 C 
ATOM     62  CD1 LEU A   7     -29.070 -26.418  67.678  0.00  0.00    +0.000 C 
ENDBRANCH  59  60
ENDBRANCH  47  59
ENDBRANCH  45  47
ENDBRANCH  42  43
BRANCH  42  63
ATOM     63  CB  LEU A   6     -30.472 -19.683  66.272  0.00  0.00    +0.029 C 
BRANCH  63  64
ATOM     64  CG  LEU A   6     -31.333 -19.032  65.186  0.00  0.00    +0.002 C 
ATOM     65  CD2 LEU A   6     -30.858 -17.600  64.948  0.00  0.00    +0.000 C 
ATOM     66  CD1 LEU A   6     -31.246 -19.844  63.902  0.00  0.00    +0.000 C 
ENDBRANCH  63  64
ENDBRANCH  42  63
ENDBRANCH  39  42
ENDBRANCH  37  38
BRANCH  37  67
ATOM     67  CB  CYS A   5     -34.899 -22.038  68.912  0.00  0.00    +0.098 C 
ATOM     68  SG  CYS A   5     -36.285 -21.643  69.981  0.00  0.00    -0.080 S 
ENDBRANCH  37  67
ENDBRANCH  35  37
ENDBRANCH   1  33
BRANCH   1  69
ATOM     69  CB  ASN A   4     -38.706 -18.880  66.321  0.00  0.00    +0.114 C 
BRANCH  69  70
ATOM     70  CG  ASN A   4     -39.759 -18.588  65.269  0.00  0.00    +0.222 C 
ATOM     71  ND2 ASN A   4     -41.024 -18.553  65.681  0.00  0.00    -0.329 N 
ATOM     72 HD21 ASN A   4     -41.249 -18.714  66.683  0.00  0.00    +0.145 HD
ATOM     73 HD22 ASN A   4     -41.788 -18.365  65.000  0.00  0.00    +0.145 HD
ATOM     74  OD1 ASN A   4     -39.437 -18.404  64.093  0.00  0.00    -0.275 OA
ENDBRANCH  69  70
ENDBRANCH   1  69
TORSDOF 29
REMARK  Name = ../refined-set-2016/4cd0/4cd0_pocket.pdb
REMARK  200 active torsions:
REMARK  status: ('A' for Active; 'I' for Inactive)
REMARK    1  A    between atoms: _1  and  _3
REMARK    2  A    between atoms: _3  and  _4
REMARK    3  A    between atoms: _3  and  _6
REMARK    4  A    between atoms: _6  and  _7
REMARK    5  A    between atoms: _7  and  _8
REMARK    6  A    between atoms: _8  and  _9
REMARK    7  A    between atoms: _18  and  _20
REMARK    8  A    between atoms: _20  and  _21
REMARK    9  A    between atoms: _23  and  _25
REMARK   10  A    between atoms: _25  and  _26
REMARK   11  A    between atoms: _25  and  _28
REMARK   12  A    between atoms: _28  and  _29
REMARK   13  A    between atoms: _32  and  _34
REMARK   14  A    between atoms: _34  and  _35
REMARK   15  A    between atoms: _37  and  _39
REMARK   16  A    between atoms: _39  and  _40
REMARK   17  A    between atoms: _39  and  _42
REMARK   18  A    between atoms: _42  and  _43
REMARK   19  A    between atoms: _48  and  _50
REMARK   20  A    between atoms: _50  and  _51
REMARK   21  A    between atoms: _53  and  _55
REMARK   22  A    between atoms: _55  and  _56
REMARK   23  A    between atoms: _59  and  _61
REMARK   24  A    between atoms: _61  and  _62
REMARK   25  A    between atoms: _61  and  _64
REMARK   26  A    between atoms: _64  and  _65
REMARK   27  A    between atoms: _71  and  _73
REMARK   28  A    between atoms: _73  and  _74
REMARK   29  A    between atoms: _76  and  _78
REMARK   30  A    between atoms: _78  and  _79
REMARK   31  A    between atoms: _78  and  _81
REMARK   32  A    between atoms: _81  and  _82
REMARK   33  A    between atoms: _82  and  _83
REMARK   34  A    between atoms: _86  and  _88
REMARK   35  A    between atoms: _88  and  _89
REMARK   36  A    between atoms: _88  and  _91
REMARK   37  A    between atoms: _94  and  _96
REMARK   38  A    between atoms: _96  and  _97
REMARK   39  A    between atoms: _96  and  _99
REMARK   40  A    between atoms: _99  and  _100
REMARK   41  A    between atoms: _105  and  _106
REMARK   42  A    between atoms: _108  and  _110
REMARK   43  A    between atoms: _110  and  _111
REMARK   44  A    between atoms: _110  and  _113
REMARK   45  A    between atoms: _113  and  _114
REMARK   46  A    between atoms: _114  and  _115
REMARK   47  A    between atoms: _118  and  _120
REMARK   48  A    between atoms: _120  and  _121
REMARK   49  A    between atoms: _120  and  _123
REMARK   50  A    between atoms: _126  and  _128
REMARK   51  A    between atoms: _128  and  _129
REMARK   52  A    between atoms: _132  and  _134
REMARK   53  A    between atoms: _134  and  _135
REMARK   54  A    between atoms: _134  and  _137
REMARK   55  A    between atoms: _140  and  _142
REMARK   56  A    between atoms: _142  and  _143
REMARK   57  A    between atoms: _142  and  _145
REMARK   58  A    between atoms: _145  and  _146
REMARK   59  A    between atoms: _146  and  _147
REMARK   60  A    between atoms: _147  and  _148
REMARK   61  A    between atoms: _148  and  _149
REMARK   62  A    between atoms: _153  and  _155
REMARK   63  A    between atoms: _155  and  _156
REMARK   64  A    between atoms: _155  and  _158
REMARK   65  A    between atoms: _158  and  _159
REMARK   66  A    between atoms: _162  and  _164
REMARK   67  A    between atoms: _164  and  _165
REMARK   68  A    between atoms: _164  and  _167
REMARK   69  A    between atoms: _167  and  _168
REMARK   70  A    between atoms: _168  and  _169
REMARK   71  A    between atoms: _172  and  _174
REMARK   72  A    between atoms: _174  and  _175
REMARK   73  A    between atoms: _174  and  _177
REMARK   74  A    between atoms: _180  and  _182
REMARK   75  A    between atoms: _182  and  _183
REMARK   76  A    between atoms: _182  and  _185
REMARK   77  A    between atoms: _185  and  _186
REMARK   78  A    between atoms: _186  and  _187
REMARK   79  A    between atoms: _187  and  _188
REMARK   80  A    between atoms: _197  and  _199
REMARK   81  A    between atoms: _199  and  _200
REMARK   82  A    between atoms: _199  and  _202
REMARK   83  A    between atoms: _202  and  _203
REMARK   84  A    between atoms: _206  and  _208
REMARK   85  A    between atoms: _208  and  _209
REMARK   86  A    between atoms: _208  and  _211
REMARK   87  A    between atoms: _211  and  _212
REMARK   88  A    between atoms: _215  and  _217
REMARK   89  A    between atoms: _217  and  _218
REMARK   90  A    between atoms: _217  and  _220
REMARK   91  A    between atoms: _220  and  _221
REMARK   92  A    between atoms: _221  and  _222
REMARK   93  A    between atoms: _224  and  _226
REMARK   94  A    between atoms: _226  and  _227
REMARK   95  A    between atoms: _226  and  _229
REMARK   96  A    between atoms: _229  and  _230
REMARK   97  A    between atoms: _230  and  _231
REMARK   98  A    between atoms: _234  and  _236
REMARK   99  A    between atoms: _236  and  _237
REMARK  100  A    between atoms: _236  and  _239
REMARK  101  A    between atoms: _239  and  _240
REMARK  102  A    between atoms: _243  and  _245
REMARK  103  A    between atoms: _245  and  _246
REMARK  104  A    between atoms: _245  and  _248
REMARK  105  A    between atoms: _248  and  _249
REMARK  106  A    between atoms: _249  and  _250
REMARK  107  A    between atoms: _252  and  _254
REMARK  108  A    between atoms: _254  and  _255
REMARK  109  A    between atoms: _258  and  _260
REMARK  110  A    between atoms: _260  and  _261
REMARK  111  A    between atoms: _263  and  _265
REMARK  112  A    between atoms: _265  and  _266
REMARK  113  A    between atoms: _268  and  _270
REMARK  114  A    between atoms: _270  and  _271
REMARK  115  A    between atoms: _270  and  _273
REMARK  116  A    between atoms: _273  and  _274
REMARK  117  A    between atoms: _277  and  _279
REMARK  118  A    between atoms: _279  and  _280
REMARK  119  A    between atoms: _279  and  _282
REMARK  120  A    between atoms: _282  and  _283
REMARK  121  A    between atoms: _286  and  _288
REMARK  122  A    between atoms: _288  and  _289
REMARK  123  A    between atoms: _288  and  _291
REMARK  124  A    between atoms: _291  and  _292
REMARK  125  A    between atoms: _292  and  _293
REMARK  126  A    between atoms: _293  and  _294
REMARK  127  A    between atoms: _294  and  _295
REMARK  128  A    between atoms: _299  and  _301
REMARK  129  A    between atoms: _301  and  _302
REMARK  130  A    between atoms: _301  and  _304
REMARK  131  A    between atoms: _304  and  _305
REMARK  132  A    between atoms: _307  and  _309
REMARK  133  A    between atoms: _309  and  _310
REMARK  134  A    between atoms: _309  and  _312
REMARK  135  A    between atoms: _312  and  _313
REMARK  136  A    between atoms: _319  and  _321
REMARK  137  A    between atoms: _321  and  _322
REMARK  138  A    between atoms: _321  and  _324
REMARK  139  A    between atoms: _324  and  _325
REMARK  140  A    between atoms: _328  and  _330
REMARK  141  A    between atoms: _330  and  _331
REMARK  142  A    between atoms: _330  and  _333
REMARK  143  A    between atoms: _333  and  _334
REMARK  144  A    between atoms: _334  and  _335
REMARK  145  A    between atoms: _338  and  _340
REMARK  146  A    between atoms: _340  and  _341
REMARK  147  A    between atoms: _340  and  _343
REMARK  148  A    between atoms: _343  and  _344
REMARK  149  A    between atoms: _349  and  _351
REMARK  150  A    between atoms: _351  and  _352
REMARK  151  A    between atoms: _355  and  _357
REMARK  152  A    between atoms: _357  and  _358
REMARK  153  A    between atoms: _361  and  _363
REMARK  154  A    between atoms: _363  and  _364
REMARK  155  A    between atoms: _363  and  _366
REMARK  156  A    between atoms: _366  and  _367
REMARK  157  A    between atoms: _367  and  _368
REMARK  158  A    between atoms: _368  and  _369
REMARK  159  A    between atoms: _378  and  _380
REMARK  160  A    between atoms: _380  and  _381
REMARK  161  A    between atoms: _380  and  _383
REMARK  162  A    between atoms: _383  and  _384
REMARK  163  A    between atoms: _389  and  _391
REMARK  164  A    between atoms: _391  and  _392
REMARK  165  A    between atoms: _391  and  _394
REMARK  166  A    between atoms: _396  and  _398
REMARK  167  A    between atoms: _398  and  _399
REMARK  168  A    between atoms: _398  and  _401
REMARK  169  A    between atoms: _401  and  _402
REMARK  170  A    between atoms: _405  and  _407
REMARK  171  A    between atoms: _407  and  _408
REMARK  172  A    between atoms: _407  and  _410
REMARK  173  A    between atoms: _410  and  _411
REMARK  174  A    between atoms: _414  and  _416
REMARK  175  A    between atoms: _416  and  _417
REMARK  176  A    between atoms: _416  and  _419
REMARK  177  A    between atoms: _419  and  _420
REMARK  178  A    between atoms: _423  and  _425
REMARK  179  A    between atoms: _425  and  _426
REMARK  180  A    between atoms: _425  and  _428
REMARK  181  A    between atoms: _428  and  _429
REMARK  182  A    between atoms: _429  and  _430
REMARK  183  A    between atoms: _430  and  _431
REMARK  184  A    between atoms: _431  and  _432
REMARK  185  A    between atoms: _436  and  _438
REMARK  186  A    between atoms: _438  and  _439
REMARK  187  A    between atoms: _438  and  _441
REMARK  188  A    between atoms: _441  and  _442
REMARK  189  A    between atoms: _445  and  _447
REMARK  190  A    between atoms: _447  and  _448
REMARK  191  A    between atoms: _450  and  _452
REMARK  192  A    between atoms: _452  and  _453
REMARK  193  A    between atoms: _452  and  _455
REMARK  194  A    between atoms: _455  and  _456
REMARK  195  A    between atoms: _459  and  _461
REMARK  196  A    between atoms: _461  and  _462
REMARK  197  A    between atoms: _461  and  _464
REMARK  198  A    between atoms: _464  and  _465
REMARK  199  A    between atoms: _471  and  _473
REMARK  200  A    between atoms: _473  and  _474
REMARK                            x       y       z     vdW  Elec       q    Type
REMARK                         _______ _______ _______ _____ _____    ______ ____
ROOT
ATOM      1  C   GLY A   3     -34.582 -15.091  66.143  0.00  0.00    +0.243 C 
ATOM      2  N   ASP A   4     -35.889 -15.235  66.322  0.00  0.00    -0.296 N 
ATOM      3  H   ASP A   4     -36.236 -15.862  67.076  0.00  0.00    +0.150 HD
ATOM      4  O   GLY A   3     -34.111 -14.391  65.250  0.00  0.00    -0.273 OA
ENDROOT
BRANCH   1   5
ATOM      5  CA  GLY A   3     -33.659 -15.848  67.079  0.00  0.00    +0.176 C 
BRANCH   5   8
ATOM      6  C   ILE A   2     -33.881 -16.268  69.431  0.00  0.00    +0.241 C 
ATOM      7  O   ILE A   2     -33.129 -15.331  69.703  0.00  0.00    -0.273 OA
ATOM      8  N   GLY A   3     -34.285 -16.532  68.194  0.00  0.00    -0.295 N 
ATOM      9  H   GLY A   3     -35.044 -17.223  68.026  0.00  0.00    +0.150 HD
BRANCH   6  10
ATOM     10  CA  ILE A   2     -34.386 -17.183  70.533  0.00  0.00    +0.148 C 
BRANCH  10  12
ATOM     11  C   LYS A   1     -32.373 -18.488  70.866  0.00  0.00    +0.238 C 
ATOM     12  N   ILE A   2     -33.225 -17.578  71.320  0.00  0.00    -0.297 N 
ATOM     13  H   ILE A   2     -33.062 -17.141  72.250  0.00  0.00    +0.150 HD
ATOM     14  O   LYS A   1     -32.573 -19.137  69.843  0.00  0.00    -0.274 OA
BRANCH  11  15
ATOM     15  CA  LYS A   1     -31.111 -18.696  71.676  0.00  0.00    +0.145 C 
BRANCH  15  16
ATOM     16  N   LYS A   1     -30.620 -20.055  71.462  0.00  0.00    -0.238 NA
ATOM     17  H   LYS A   1     -30.624 -20.449  70.499  0.00  0.00    +0.142 HD
ENDBRANCH  15  16
BRANCH  15  18
ATOM     18  CB  LYS A   1     -30.060 -17.664  71.240  0.00  0.00    +0.026 C 
BRANCH  18  19
ATOM     19  CG  LYS A   1     -28.649 -17.965  71.724  0.00  0.00    -0.000 C 
BRANCH  19  20
ATOM     20  CD  LYS A   1     -27.722 -16.750  71.597  0.00  0.00    -0.024 C 
BRANCH  20  21
ATOM     21  CE  LYS A   1     -26.361 -17.047  72.222  0.00  0.00    -0.086 C 
BRANCH  21  22
ATOM     22  NZ  LYS A   1     -25.398 -15.911  72.110  0.00  0.00    +0.380 N 
ATOM     23  HZ1 LYS A   1     -25.790 -15.077  72.593  0.00  0.00    -0.089 HD
ATOM     24  HZ2 LYS A   1     -24.496 -16.178  72.553  0.00  0.00    -0.089 HD
ATOM     25  HZ3 LYS A   1     -25.240 -15.689  71.106  0.00  0.00    -0.089 HD
ENDBRANCH  21  22
ENDBRANCH  20  21
ENDBRANCH  19  20
ENDBRANCH  18  19
ENDBRANCH  15  18
ENDBRANCH  11  15
ENDBRANCH  10  12
BRANCH  10  26
ATOM     26  CB  ILE A   2     -35.404 -16.409  71.391  0.00  0.00    +0.027 C 
ATOM     27  CG2 ILE A   2     -36.615 -16.054  70.552  0.00  0.00    +0.002 C 
BRANCH  26  28
ATOM     28  CG1 ILE A   2     -35.817 -17.258  72.597  0.00  0.00    +0.002 C 
ATOM     29  CD1 ILE A   2     -36.913 -16.637  73.441  0.00  0.00    +0.000 C 
ENDBRANCH  26  28
ENDBRANCH  10  26
ENDBRANCH   6  10
ENDBRANCH   5   8
ENDBRANCH   1   5
BRANCH   2  30
ATOM     30  CA  ASP A   4     -36.847 -14.529  65.479  0.00  0.00    +0.160 C 
BRANCH  30  31
ATOM     31  C   ASP A   4     -37.909 -13.849  66.330  0.00  0.00    +0.241 C 
ATOM     32  O   ASP A   4     -38.363 -14.402  67.329  0.00  0.00    -0.273 OA
ATOM     33  N   PHE A   5     -38.311 -12.651  65.926  0.00  0.00    -0.297 N 
ATOM     34  H   PHE A   5     -37.889 -12.234  65.072  0.00  0.00    +0.150 HD
BRANCH  33  35
ATOM     35  CA  PHE A   5     -39.329 -11.908  66.651  0.00  0.00    +0.153 C 
BRANCH  35  36
ATOM     36  C   PHE A   5     -40.380 -11.322  65.715  0.00  0.00    +0.241 C 
ATOM     37  O   PHE A   5     -40.973 -10.285  66.007  0.00  0.00    -0.273 OA
ATOM     38  N   GLY A   6     -40.615 -12.001  64.595  0.00  0.00    -0.296 N 
ATOM     39  H   GLY A   6     -40.161 -12.926  64.451  0.00  0.00    +0.150 HD
BRANCH  38  40
ATOM     40  CA  GLY A   6     -41.496 -11.470  63.571  0.00  0.00    +0.163 C 
BRANCH  40  41
ATOM     41  C   GLY A   6     -42.948 -11.337  63.992  0.00  0.00    +0.229 C 
ATOM     42  O   GLY A   6     -43.631 -10.398  63.583  0.00  0.00    -0.286 OA
ENDBRANCH  40  41
ENDBRANCH  38  40
ENDBRANCH  35  36
BRANCH  35  43
ATOM     43  CB  PHE A   5     -38.664 -10.795  67.472  0.00  0.00    +0.055 C 
BRANCH  43  44
ATOM     44  CG  PHE A   5     -37.843 -11.306  68.624  0.00  0.00    -0.020 A 
ATOM     45  CD2 PHE A   5     -38.408 -11.463  69.878  0.00  0.00    -0.004 A 
ATOM     46  CE2 PHE A   5     -37.669 -11.968  70.931  0.00  0.00    -0.000 A 
ATOM     47  CZ  PHE A   5     -36.352 -12.322  70.737  0.00  0.00    -0.000 A 
ATOM     48  CE1 PHE A   5     -35.776 -12.170  69.495  0.00  0.00    -0.000 A 
ATOM     49  CD1 PHE A   5     -36.519 -11.663  68.446  0.00  0.00    -0.004 A 
ENDBRANCH  43  44
ENDBRANCH  35  43
ENDBRANCH  33  35
ENDBRANCH  30  31
BRANCH  30  50
ATOM     50  CB  ASP A   4     -37.520 -15.503  64.507  0.00  0.00    +0.143 C 
BRANCH  50  51
ATOM     51  CG  ASP A   4     -38.500 -14.809  63.568  0.00  0.00    +0.367 C 
ATOM     52  OD2 ASP A   4     -39.613 -14.451  64.013  0.00  0.00    -0.246 OA
ATOM     53  OD1 ASP A   4     -38.156 -14.623  62.382  0.00  0.00    -0.246 OA
ENDBRANCH  50  51
ENDBRANCH  30  50
ENDBRANCH   2  30
TORSDOF 23
REMARK  Name = ../refined-set-2016/4cd0/4cd0_pocket.pdb
REMARK  200 active torsions:
REMARK  status: ('A' for Active; 'I' for Inactive)
REMARK    1  A    between atoms: _1  and  _3
REMARK    2  A    between atoms: _3  and  _4
REMARK    3  A    between atoms: _3  and  _6
REMARK    4  A    between atoms: _6  and  _7
REMARK    5  A    between atoms: _7  and  _8
REMARK    6  A    between atoms: _8  and  _9
REMARK    7  A    between atoms: _18  and  _20
REMARK    8  A    between atoms: _20  and  _21
REMARK    9  A    between atoms: _23  and  _25
REMARK   10  A    between atoms: _25  and  _26
REMARK   11  A    between atoms: _25  and  _28
REMARK   12  A    between atoms: _28  and  _29
REMARK   13  A    between atoms: _32  and  _34
REMARK   14  A    between atoms: _34  and  _35
REMARK   15  A    between atoms: _37  and  _39
REMARK   16  A    between atoms: _39  and  _40
REMARK   17  A    between atoms: _39  and  _42
REMARK   18  A    between atoms: _42  and  _43
REMARK   19  A    between atoms: _48  and  _50
REMARK   20  A    between atoms: _50  and  _51
REMARK   21  A    between atoms: _53  and  _55
REMARK   22  A    between atoms: _55  and  _56
REMARK   23  A    between atoms: _59  and  _61
REMARK   24  A    between atoms: _61  and  _62
REMARK   25  A    between atoms: _61  and  _64
REMARK   26  A    between atoms: _64  and  _65
REMARK   27  A    between atoms: _71  and  _73
REMARK   28  A    between atoms: _73  and  _74
REMARK   29  A    between atoms: _76  and  _78
REMARK   30  A    between atoms: _78  and  _79
REMARK   31  A    between atoms: _78  and  _81
REMARK   32  A    between atoms: _81  and  _82
REMARK   33  A    between atoms: _82  and  _83
REMARK   34  A    between atoms: _86  and  _88
REMARK   35  A    between atoms: _88  and  _89
REMARK   36  A    between atoms: _88  and  _91
REMARK   37  A    between atoms: _94  and  _96
REMARK   38  A    between atoms: _96  and  _97
REMARK   39  A    between atoms: _96  and  _99
REMARK   40  A    between atoms: _99  and  _100
REMARK   41  A    between atoms: _105  and  _106
REMARK   42  A    between atoms: _108  and  _110
REMARK   43  A    between atoms: _110  and  _111
REMARK   44  A    between atoms: _110  and  _113
REMARK   45  A    between atoms: _113  and  _114
REMARK   46  A    between atoms: _114  and  _115
REMARK   47  A    between atoms: _118  and  _120
REMARK   48  A    between atoms: _120  and  _121
REMARK   49  A    between atoms: _120  and  _123
REMARK   50  A    between atoms: _126  and  _128
REMARK   51  A    between atoms: _128  and  _129
REMARK   52  A    between atoms: _132  and  _134
REMARK   53  A    between atoms: _134  and  _135
REMARK   54  A    between atoms: _134  and  _137
REMARK   55  A    between atoms: _140  and  _142
REMARK   56  A    between atoms: _142  and  _143
REMARK   57  A    between atoms: _142  and  _145
REMARK   58  A    between atoms: _145  and  _146
REMARK   59  A    between atoms: _146  and  _147
REMARK   60  A    between atoms: _147  and  _148
REMARK   61  A    between atoms: _148  and  _149
REMARK   62  A    between atoms: _153  and  _155
REMARK   63  A    between atoms: _155  and  _156
REMARK   64  A    between atoms: _155  and  _158
REMARK   65  A    between atoms: _158  and  _159
REMARK   66  A    between atoms: _162  and  _164
REMARK   67  A    between atoms: _164  and  _165
REMARK   68  A    between atoms: _164  and  _167
REMARK   69  A    between atoms: _167  and  _168
REMARK   70  A    between atoms: _168  and  _169
REMARK   71  A    between atoms: _172  and  _174
REMARK   72  A    between atoms: _174  and  _175
REMARK   73  A    between atoms: _174  and  _177
REMARK   74  A    between atoms: _180  and  _182
REMARK   75  A    between atoms: _182  and  _183
REMARK   76  A    between atoms: _182  and  _185
REMARK   77  A    between atoms: _185  and  _186
REMARK   78  A    between atoms: _186  and  _187
REMARK   79  A    between atoms: _187  and  _188
REMARK   80  A    between atoms: _197  and  _199
REMARK   81  A    between atoms: _199  and  _200
REMARK   82  A    between atoms: _199  and  _202
REMARK   83  A    between atoms: _202  and  _203
REMARK   84  A    between atoms: _206  and  _208
REMARK   85  A    between atoms: _208  and  _209
REMARK   86  A    between atoms: _208  and  _211
REMARK   87  A    between atoms: _211  and  _212
REMARK   88  A    between atoms: _215  and  _217
REMARK   89  A    between atoms: _217  and  _218
REMARK   90  A    between atoms: _217  and  _220
REMARK   91  A    between atoms: _220  and  _221
REMARK   92  A    between atoms: _221  and  _222
REMARK   93  A    between atoms: _224  and  _226
REMARK   94  A    between atoms: _226  and  _227
REMARK   95  A    between atoms: _226  and  _229
REMARK   96  A    between atoms: _229  and  _230
REMARK   97  A    between atoms: _230  and  _231
REMARK   98  A    between atoms: _234  and  _236
REMARK   99  A    between atoms: _236  and  _237
REMARK  100  A    between atoms: _236  and  _239
REMARK  101  A    between atoms: _239  and  _240
REMARK  102  A    between atoms: _243  and  _245
REMARK  103  A    between atoms: _245  and  _246
REMARK  104  A    between atoms: _245  and  _248
REMARK  105  A    between atoms: _248  and  _249
REMARK  106  A    between atoms: _249  and  _250
REMARK  107  A    between atoms: _252  and  _254
REMARK  108  A    between atoms: _254  and  _255
REMARK  109  A    between atoms: _258  and  _260
REMARK  110  A    between atoms: _260  and  _261
REMARK  111  A    between atoms: _263  and  _265
REMARK  112  A    between atoms: _265  and  _266
REMARK  113  A    between atoms: _268  and  _270
REMARK  114  A    between atoms: _270  and  _271
REMARK  115  A    between atoms: _270  and  _273
REMARK  116  A    between atoms: _273  and  _274
REMARK  117  A    between atoms: _277  and  _279
REMARK  118  A    between atoms: _279  and  _280
REMARK  119  A    between atoms: _279  and  _282
REMARK  120  A    between atoms: _282  and  _283
REMARK  121  A    between atoms: _286  and  _288
REMARK  122  A    between atoms: _288  and  _289
REMARK  123  A    between atoms: _288  and  _291
REMARK  124  A    between atoms: _291  and  _292
REMARK  125  A    between atoms: _292  and  _293
REMARK  126  A    between atoms: _293  and  _294
REMARK  127  A    between atoms: _294  and  _295
REMARK  128  A    between atoms: _299  and  _301
REMARK  129  A    between atoms: _301  and  _302
REMARK  130  A    between atoms: _301  and  _304
REMARK  131  A    between atoms: _304  and  _305
REMARK  132  A    between atoms: _307  and  _309
REMARK  133  A    between atoms: _309  and  _310
REMARK  134  A    between atoms: _309  and  _312
REMARK  135  A    between atoms: _312  and  _313
REMARK  136  A    between atoms: _319  and  _321
REMARK  137  A    between atoms: _321  and  _322
REMARK  138  A    between atoms: _321  and  _324
REMARK  139  A    between atoms: _324  and  _325
REMARK  140  A    between atoms: _328  and  _330
REMARK  141  A    between atoms: _330  and  _331
REMARK  142  A    between atoms: _330  and  _333
REMARK  143  A    between atoms: _333  and  _334
REMARK  144  A    between atoms: _334  and  _335
REMARK  145  A    between atoms: _338  and  _340
REMARK  146  A    between atoms: _340  and  _341
REMARK  147  A    between atoms: _340  and  _343
REMARK  148  A    between atoms: _343  and  _344
REMARK  149  A    between atoms: _349  and  _351
REMARK  150  A    between atoms: _351  and  _352
REMARK  151  A    between atoms: _355  and  _357
REMARK  152  A    between atoms: _357  and  _358
REMARK  153  A    between atoms: _361  and  _363
REMARK  154  A    between atoms: _363  and  _364
REMARK  155  A    between atoms: _363  and  _366
REMARK  156  A    between atoms: _366  and  _367
REMARK  157  A    between atoms: _367  and  _368
REMARK  158  A    between atoms: _368  and  _369
REMARK  159  A    between atoms: _378  and  _380
REMARK  160  A    between atoms: _380  and  _381
REMARK  161  A    between atoms: _380  and  _383
REMARK  162  A    between atoms: _383  and  _384
REMARK  163  A    between atoms: _389  and  _391
REMARK  164  A    between atoms: _391  and  _392
REMARK  165  A    between atoms: _391  and  _394
REMARK  166  A    between atoms: _396  and  _398
REMARK  167  A    between atoms: _398  and  _399
REMARK  168  A    between atoms: _398  and  _401
REMARK  169  A    between atoms: _401  and  _402
REMARK  170  A    between atoms: _405  and  _407
REMARK  171  A    between atoms: _407  and  _408
REMARK  172  A    between atoms: _407  and  _410
REMARK  173  A    between atoms: _410  and  _411
REMARK  174  A    between atoms: _414  and  _416
REMARK  175  A    between atoms: _416  and  _417
REMARK  176  A    between atoms: _416  and  _419
REMARK  177  A    between atoms: _419  and  _420
REMARK  178  A    between atoms: _423  and  _425
REMARK  179  A    between atoms: _425  and  _426
REMARK  180  A    between atoms: _425  and  _428
REMARK  181  A    between atoms: _428  and  _429
REMARK  182  A    between atoms: _429  and  _430
REMARK  183  A    between atoms: _430  and  _431
REMARK  184  A    between atoms: _431  and  _432
REMARK  185  A    between atoms: _436  and  _438
REMARK  186  A    between atoms: _438  and  _439
REMARK  187  A    between atoms: _438  and  _441
REMARK  188  A    between atoms: _441  and  _442
REMARK  189  A    between atoms: _445  and  _447
REMARK  190  A    between atoms: _447  and  _448
REMARK  191  A    between atoms: _450  and  _452
REMARK  192  A    between atoms: _452  and  _453
REMARK  193  A    between atoms: _452  and  _455
REMARK  194  A    between atoms: _455  and  _456
REMARK  195  A    between atoms: _459  and  _461
REMARK  196  A    between atoms: _461  and  _462
REMARK  197  A    between atoms: _461  and  _464
REMARK  198  A    between atoms: _464  and  _465
REMARK  199  A    between atoms: _471  and  _473
REMARK  200  A    between atoms: _473  and  _474
REMARK                            x       y       z     vdW  Elec       q    Type
REMARK                         _______ _______ _______ _____ _____    ______ ____
ROOT
ATOM      1  O   HOH     1     -25.793 -26.308  59.510  0.00  0.00    +0.000 OA
ENDROOT
TORSDOF 0
REMARK  Name = ../refined-set-2016/4cd0/4cd0_pocket.pdb
REMARK  200 active torsions:
REMARK  status: ('A' for Active; 'I' for Inactive)
REMARK    1  A    between atoms: _1  and  _3
REMARK    2  A    between atoms: _3  and  _4
REMARK    3  A    between atoms: _3  and  _6
REMARK    4  A    between atoms: _6  and  _7
REMARK    5  A    between atoms: _7  and  _8
REMARK    6  A    between atoms: _8  and  _9
REMARK    7  A    between atoms: _18  and  _20
REMARK    8  A    between atoms: _20  and  _21
REMARK    9  A    between atoms: _23  and  _25
REMARK   10  A    between atoms: _25  and  _26
REMARK   11  A    between atoms: _25  and  _28
REMARK   12  A    between atoms: _28  and  _29
REMARK   13  A    between atoms: _32  and  _34
REMARK   14  A    between atoms: _34  and  _35
REMARK   15  A    between atoms: _37  and  _39
REMARK   16  A    between atoms: _39  and  _40
REMARK   17  A    between atoms: _39  and  _42
REMARK   18  A    between atoms: _42  and  _43
REMARK   19  A    between atoms: _48  and  _50
REMARK   20  A    between atoms: _50  and  _51
REMARK   21  A    between atoms: _53  and  _55
REMARK   22  A    between atoms: _55  and  _56
REMARK   23  A    between atoms: _59  and  _61
REMARK   24  A    between atoms: _61  and  _62
REMARK   25  A    between atoms: _61  and  _64
REMARK   26  A    between atoms: _64  and  _65
REMARK   27  A    between atoms: _71  and  _73
REMARK   28  A    between atoms: _73  and  _74
REMARK   29  A    between atoms: _76  and  _78
REMARK   30  A    between atoms: _78  and  _79
REMARK   31  A    between atoms: _78  and  _81
REMARK   32  A    between atoms: _81  and  _82
REMARK   33  A    between atoms: _82  and  _83
REMARK   34  A    between atoms: _86  and  _88
REMARK   35  A    between atoms: _88  and  _89
REMARK   36  A    between atoms: _88  and  _91
REMARK   37  A    between atoms: _94  and  _96
REMARK   38  A    between atoms: _96  and  _97
REMARK   39  A    between atoms: _96  and  _99
REMARK   40  A    between atoms: _99  and  _100
REMARK   41  A    between atoms: _105  and  _106
REMARK   42  A    between atoms: _108  and  _110
REMARK   43  A    between atoms: _110  and  _111
REMARK   44  A    between atoms: _110  and  _113
REMARK   45  A    between atoms: _113  and  _114
REMARK   46  A    between atoms: _114  and  _115
REMARK   47  A    between atoms: _118  and  _120
REMARK   48  A    between atoms: _120  and  _121
REMARK   49  A    between atoms: _120  and  _123
REMARK   50  A    between atoms: _126  and  _128
REMARK   51  A    between atoms: _128  and  _129
REMARK   52  A    between atoms: _132  and  _134
REMARK   53  A    between atoms: _134  and  _135
REMARK   54  A    between atoms: _134  and  _137
REMARK   55  A    between atoms: _140  and  _142
REMARK   56  A    between atoms: _142  and  _143
REMARK   57  A    between atoms: _142  and  _145
REMARK   58  A    between atoms: _145  and  _146
REMARK   59  A    between atoms: _146  and  _147
REMARK   60  A    between atoms: _147  and  _148
REMARK   61  A    between atoms: _148  and  _149
REMARK   62  A    between atoms: _153  and  _155
REMARK   63  A    between atoms: _155  and  _156
REMARK   64  A    between atoms: _155  and  _158
REMARK   65  A    between atoms: _158  and  _159
REMARK   66  A    between atoms: _162  and  _164
REMARK   67  A    between atoms: _164  and  _165
REMARK   68  A    between atoms: _164  and  _167
REMARK   69  A    between atoms: _167  and  _168
REMARK   70  A    between atoms: _168  and  _169
REMARK   71  A    between atoms: _172  and  _174
REMARK   72  A    between atoms: _174  and  _175
REMARK   73  A    between atoms: _174  and  _177
REMARK   74  A    between atoms: _180  and  _182
REMARK   75  A    between atoms: _182  and  _183
REMARK   76  A    between atoms: _182  and  _185
REMARK   77  A    between atoms: _185  and  _186
REMARK   78  A    between atoms: _186  and  _187
REMARK   79  A    between atoms: _187  and  _188
REMARK   80  A    between atoms: _197  and  _199
REMARK   81  A    between atoms: _199  and  _200
REMARK   82  A    between atoms: _199  and  _202
REMARK   83  A    between atoms: _202  and  _203
REMARK   84  A    between atoms: _206  and  _208
REMARK   85  A    between atoms: _208  and  _209
REMARK   86  A    between atoms: _208  and  _211
REMARK   87  A    between atoms: _211  and  _212
REMARK   88  A    between atoms: _215  and  _217
REMARK   89  A    between atoms: _217  and  _218
REMARK   90  A    between atoms: _217  and  _220
REMARK   91  A    between atoms: _220  and  _221
REMARK   92  A    between atoms: _221  and  _222
REMARK   93  A    between atoms: _224  and  _226
REMARK   94  A    between atoms: _226  and  _227
REMARK   95  A    between atoms: _226  and  _229
REMARK   96  A    between atoms: _229  and  _230
REMARK   97  A    between atoms: _230  and  _231
REMARK   98  A    between atoms: _234  and  _236
REMARK   99  A    between atoms: _236  and  _237
REMARK  100  A    between atoms: _236  and  _239
REMARK  101  A    between atoms: _239  and  _240
REMARK  102  A    between atoms: _243  and  _245
REMARK  103  A    between atoms: _245  and  _246
REMARK  104  A    between atoms: _245  and  _248
REMARK  105  A    between atoms: _248  and  _249
REMARK  106  A    between atoms: _249  and  _250
REMARK  107  A    between atoms: _252  and  _254
REMARK  108  A    between atoms: _254  and  _255
REMARK  109  A    between atoms: _258  and  _260
REMARK  110  A    between atoms: _260  and  _261
REMARK  111  A    between atoms: _263  and  _265
REMARK  112  A    between atoms: _265  and  _266
REMARK  113  A    between atoms: _268  and  _270
REMARK  114  A    between atoms: _270  and  _271
REMARK  115  A    between atoms: _270  and  _273
REMARK  116  A    between atoms: _273  and  _274
REMARK  117  A    between atoms: _277  and  _279
REMARK  118  A    between atoms: _279  and  _280
REMARK  119  A    between atoms: _279  and  _282
REMARK  120  A    between atoms: _282  and  _283
REMARK  121  A    between atoms: _286  and  _288
REMARK  122  A    between atoms: _288  and  _289
REMARK  123  A    between atoms: _288  and  _291
REMARK  124  A    between atoms: _291  and  _292
REMARK  125  A    between atoms: _292  and  _293
REMARK  126  A    between atoms: _293  and  _294
REMARK  127  A    between atoms: _294  and  _295
REMARK  128  A    between atoms: _299  and  _301
REMARK  129  A    between atoms: _301  and  _302
REMARK  130  A    between atoms: _301  and  _304
REMARK  131  A    between atoms: _304  and  _305
REMARK  132  A    between atoms: _307  and  _309
REMARK  133  A    between atoms: _309  and  _310
REMARK  134  A    between atoms: _309  and  _312
REMARK  135  A    between atoms: _312  and  _313
REMARK  136  A    between atoms: _319  and  _321
REMARK  137  A    between atoms: _321  and  _322
REMARK  138  A    between atoms: _321  and  _324
REMARK  139  A    between atoms: _324  and  _325
REMARK  140  A    between atoms: _328  and  _330
REMARK  141  A    between atoms: _330  and  _331
REMARK  142  A    between atoms: _330  and  _333
REMARK  143  A    between atoms: _333  and  _334
REMARK  144  A    between atoms: _334  and  _335
REMARK  145  A    between atoms: _338  and  _340
REMARK  146  A    between atoms: _340  and  _341
REMARK  147  A    between atoms: _340  and  _343
REMARK  148  A    between atoms: _343  and  _344
REMARK  149  A    between atoms: _349  and  _351
REMARK  150  A    between atoms: _351  and  _352
REMARK  151  A    between atoms: _355  and  _357
REMARK  152  A    between atoms: _357  and  _358
REMARK  153  A    between atoms: _361  and  _363
REMARK  154  A    between atoms: _363  and  _364
REMARK  155  A    between atoms: _363  and  _366
REMARK  156  A    between atoms: _366  and  _367
REMARK  157  A    between atoms: _367  and  _368
REMARK  158  A    between atoms: _368  and  _369
REMARK  159  A    between atoms: _378  and  _380
REMARK  160  A    between atoms: _380  and  _381
REMARK  161  A    between atoms: _380  and  _383
REMARK  162  A    between atoms: _383  and  _384
REMARK  163  A    between atoms: _389  and  _391
REMARK  164  A    between atoms: _391  and  _392
REMARK  165  A    between atoms: _391  and  _394
REMARK  166  A    between atoms: _396  and  _398
REMARK  167  A    between atoms: _398  and  _399
REMARK  168  A    between atoms: _398  and  _401
REMARK  169  A    between atoms: _401  and  _402
REMARK  170  A    between atoms: _405  and  _407
REMARK  171  A    between atoms: _407  and  _408
REMARK  172  A    between atoms: _407  and  _410
REMARK  173  A    between atoms: _410  and  _411
REMARK  174  A    between atoms: _414  and  _416
REMARK  175  A    between atoms: _416  and  _417
REMARK  176  A    between atoms: _416  and  _419
REMARK  177  A    between atoms: _419  and  _420
REMARK  178  A    between atoms: _423  and  _425
REMARK  179  A    between atoms: _425  and  _426
REMARK  180  A    between atoms: _425  and  _428
REMARK  181  A    between atoms: _428  and  _429
REMARK  182  A    between atoms: _429  and  _430
REMARK  183  A    between atoms: _430  and  _431
REMARK  184  A    between atoms: _431  and  _432
REMARK  185  A    between atoms: _436  and  _438
REMARK  186  A    between atoms: _438  and  _439
REMARK  187  A    between atoms: _438  and  _441
REMARK  188  A    between atoms: _441  and  _442
REMARK  189  A    between atoms: _445  and  _447
REMARK  190  A    between atoms: _447  and  _448
REMARK  191  A    between atoms: _450  and  _452
REMARK  192  A    between atoms: _452  and  _453
REMARK  193  A    between atoms: _452  and  _455
REMARK  194  A    between atoms: _455  and  _456
REMARK  195  A    between atoms: _459  and  _461
REMARK  196  A    between atoms: _461  and  _462
REMARK  197  A    between atoms: _461  and  _464
REMARK  198  A    between atoms: _464  and  _465
REMARK  199  A    between atoms: _471  and  _473
REMARK  200  A    between atoms: _473  and  _474
REMARK                            x       y       z     vdW  Elec       q    Type
REMARK                         _______ _______ _______ _____ _____    ______ ____
ROOT
ATOM      1  O   HOH     1     -23.785 -22.110  56.509  0.00  0.00    +0.000 OA
ENDROOT
TORSDOF 0
REMARK  Name = ../refined-set-2016/4cd0/4cd0_pocket.pdb
REMARK  200 active torsions:
REMARK  status: ('A' for Active; 'I' for Inactive)
REMARK    1  A    between atoms: _1  and  _3
REMARK    2  A    between atoms: _3  and  _4
REMARK    3  A    between atoms: _3  and  _6
REMARK    4  A    between atoms: _6  and  _7
REMARK    5  A    between atoms: _7  and  _8
REMARK    6  A    between atoms: _8  and  _9
REMARK    7  A    between atoms: _18  and  _20
REMARK    8  A    between atoms: _20  and  _21
REMARK    9  A    between atoms: _23  and  _25
REMARK   10  A    between atoms: _25  and  _26
REMARK   11  A    between atoms: _25  and  _28
REMARK   12  A    between atoms: _28  and  _29
REMARK   13  A    between atoms: _32  and  _34
REMARK   14  A    between atoms: _34  and  _35
REMARK   15  A    between atoms: _37  and  _39
REMARK   16  A    between atoms: _39  and  _40
REMARK   17  A    between atoms: _39  and  _42
REMARK   18  A    between atoms: _42  and  _43
REMARK   19  A    between atoms: _48  and  _50
REMARK   20  A    between atoms: _50  and  _51
REMARK   21  A    between atoms: _53  and  _55
REMARK   22  A    between atoms: _55  and  _56
REMARK   23  A    between atoms: _59  and  _61
REMARK   24  A    between atoms: _61  and  _62
REMARK   25  A    between atoms: _61  and  _64
REMARK   26  A    between atoms: _64  and  _65
REMARK   27  A    between atoms: _71  and  _73
REMARK   28  A    between atoms: _73  and  _74
REMARK   29  A    between atoms: _76  and  _78
REMARK   30  A    between atoms: _78  and  _79
REMARK   31  A    between atoms: _78  and  _81
REMARK   32  A    between atoms: _81  and  _82
REMARK   33  A    between atoms: _82  and  _83
REMARK   34  A    between atoms: _86  and  _88
REMARK   35  A    between atoms: _88  and  _89
REMARK   36  A    between atoms: _88  and  _91
REMARK   37  A    between atoms: _94  and  _96
REMARK   38  A    between atoms: _96  and  _97
REMARK   39  A    between atoms: _96  and  _99
REMARK   40  A    between atoms: _99  and  _100
REMARK   41  A    between atoms: _105  and  _106
REMARK   42  A    between atoms: _108  and  _110
REMARK   43  A    between atoms: _110  and  _111
REMARK   44  A    between atoms: _110  and  _113
REMARK   45  A    between atoms: _113  and  _114
REMARK   46  A    between atoms: _114  and  _115
REMARK   47  A    between atoms: _118  and  _120
REMARK   48  A    between atoms: _120  and  _121
REMARK   49  A    between atoms: _120  and  _123
REMARK   50  A    between atoms: _126  and  _128
REMARK   51  A    between atoms: _128  and  _129
REMARK   52  A    between atoms: _132  and  _134
REMARK   53  A    between atoms: _134  and  _135
REMARK   54  A    between atoms: _134  and  _137
REMARK   55  A    between atoms: _140  and  _142
REMARK   56  A    between atoms: _142  and  _143
REMARK   57  A    between atoms: _142  and  _145
REMARK   58  A    between atoms: _145  and  _146
REMARK   59  A    between atoms: _146  and  _147
REMARK   60  A    between atoms: _147  and  _148
REMARK   61  A    between atoms: _148  and  _149
REMARK   62  A    between atoms: _153  and  _155
REMARK   63  A    between atoms: _155  and  _156
REMARK   64  A    between atoms: _155  and  _158
REMARK   65  A    between atoms: _158  and  _159
REMARK   66  A    between atoms: _162  and  _164
REMARK   67  A    between atoms: _164  and  _165
REMARK   68  A    between atoms: _164  and  _167
REMARK   69  A    between atoms: _167  and  _168
REMARK   70  A    between atoms: _168  and  _169
REMARK   71  A    between atoms: _172  and  _174
REMARK   72  A    between atoms: _174  and  _175
REMARK   73  A    between atoms: _174  and  _177
REMARK   74  A    between atoms: _180  and  _182
REMARK   75  A    between atoms: _182  and  _183
REMARK   76  A    between atoms: _182  and  _185
REMARK   77  A    between atoms: _185  and  _186
REMARK   78  A    between atoms: _186  and  _187
REMARK   79  A    between atoms: _187  and  _188
REMARK   80  A    between atoms: _197  and  _199
REMARK   81  A    between atoms: _199  and  _200
REMARK   82  A    between atoms: _199  and  _202
REMARK   83  A    between atoms: _202  and  _203
REMARK   84  A    between atoms: _206  and  _208
REMARK   85  A    between atoms: _208  and  _209
REMARK   86  A    between atoms: _208  and  _211
REMARK   87  A    between atoms: _211  and  _212
REMARK   88  A    between atoms: _215  and  _217
REMARK   89  A    between atoms: _217  and  _218
REMARK   90  A    between atoms: _217  and  _220
REMARK   91  A    between atoms: _220  and  _221
REMARK   92  A    between atoms: _221  and  _222
REMARK   93  A    between atoms: _224  and  _226
REMARK   94  A    between atoms: _226  and  _227
REMARK   95  A    between atoms: _226  and  _229
REMARK   96  A    between atoms: _229  and  _230
REMARK   97  A    between atoms: _230  and  _231
REMARK   98  A    between atoms: _234  and  _236
REMARK   99  A    between atoms: _236  and  _237
REMARK  100  A    between atoms: _236  and  _239
REMARK  101  A    between atoms: _239  and  _240
REMARK  102  A    between atoms: _243  and  _245
REMARK  103  A    between atoms: _245  and  _246
REMARK  104  A    between atoms: _245  and  _248
REMARK  105  A    between atoms: _248  and  _249
REMARK  106  A    between atoms: _249  and  _250
REMARK  107  A    between atoms: _252  and  _254
REMARK  108  A    between atoms: _254  and  _255
REMARK  109  A    between atoms: _258  and  _260
REMARK  110  A    between atoms: _260  and  _261
REMARK  111  A    between atoms: _263  and  _265
REMARK  112  A    between atoms: _265  and  _266
REMARK  113  A    between atoms: _268  and  _270
REMARK  114  A    between atoms: _270  and  _271
REMARK  115  A    between atoms: _270  and  _273
REMARK  116  A    between atoms: _273  and  _274
REMARK  117  A    between atoms: _277  and  _279
REMARK  118  A    between atoms: _279  and  _280
REMARK  119  A    between atoms: _279  and  _282
REMARK  120  A    between atoms: _282  and  _283
REMARK  121  A    between atoms: _286  and  _288
REMARK  122  A    between atoms: _288  and  _289
REMARK  123  A    between atoms: _288  and  _291
REMARK  124  A    between atoms: _291  and  _292
REMARK  125  A    between atoms: _292  and  _293
REMARK  126  A    between atoms: _293  and  _294
REMARK  127  A    between atoms: _294  and  _295
REMARK  128  A    between atoms: _299  and  _301
REMARK  129  A    between atoms: _301  and  _302
REMARK  130  A    between atoms: _301  and  _304
REMARK  131  A    between atoms: _304  and  _305
REMARK  132  A    between atoms: _307  and  _309
REMARK  133  A    between atoms: _309  and  _310
REMARK  134  A    between atoms: _309  and  _312
REMARK  135  A    between atoms: _312  and  _313
REMARK  136  A    between atoms: _319  and  _321
REMARK  137  A    between atoms: _321  and  _322
REMARK  138  A    between atoms: _321  and  _324
REMARK  139  A    between atoms: _324  and  _325
REMARK  140  A    between atoms: _328  and  _330
REMARK  141  A    between atoms: _330  and  _331
REMARK  142  A    between atoms: _330  and  _333
REMARK  143  A    between atoms: _333  and  _334
REMARK  144  A    between atoms: _334  and  _335
REMARK  145  A    between atoms: _338  and  _340
REMARK  146  A    between atoms: _340  and  _341
REMARK  147  A    between atoms: _340  and  _343
REMARK  148  A    between atoms: _343  and  _344
REMARK  149  A    between atoms: _349  and  _351
REMARK  150  A    between atoms: _351  and  _352
REMARK  151  A    between atoms: _355  and  _357
REMARK  152  A    between atoms: _357  and  _358
REMARK  153  A    between atoms: _361  and  _363
REMARK  154  A    between atoms: _363  and  _364
REMARK  155  A    between atoms: _363  and  _366
REMARK  156  A    between atoms: _366  and  _367
REMARK  157  A    between atoms: _367  and  _368
REMARK  158  A    between atoms: _368  and  _369
REMARK  159  A    between atoms: _378  and  _380
REMARK  160  A    between atoms: _380  and  _381
REMARK  161  A    between atoms: _380  and  _383
REMARK  162  A    between atoms: _383  and  _384
REMARK  163  A    between atoms: _389  and  _391
REMARK  164  A    between atoms: _391  and  _392
REMARK  165  A    between atoms: _391  and  _394
REMARK  166  A    between atoms: _396  and  _398
REMARK  167  A    between atoms: _398  and  _399
REMARK  168  A    between atoms: _398  and  _401
REMARK  169  A    between atoms: _401  and  _402
REMARK  170  A    between atoms: _405  and  _407
REMARK  171  A    between atoms: _407  and  _408
REMARK  172  A    between atoms: _407  and  _410
REMARK  173  A    between atoms: _410  and  _411
REMARK  174  A    between atoms: _414  and  _416
REMARK  175  A    between atoms: _416  and  _417
REMARK  176  A    between atoms: _416  and  _419
REMARK  177  A    between atoms: _419  and  _420
REMARK  178  A    between atoms: _423  and  _425
REMARK  179  A    between atoms: _425  and  _426
REMARK  180  A    between atoms: _425  and  _428
REMARK  181  A    between atoms: _428  and  _429
REMARK  182  A    between atoms: _429  and  _430
REMARK  183  A    between atoms: _430  and  _431
REMARK  184  A    between atoms: _431  and  _432
REMARK  185  A    between atoms: _436  and  _438
REMARK  186  A    between atoms: _438  and  _439
REMARK  187  A    between atoms: _438  and  _441
REMARK  188  A    between atoms: _441  and  _442
REMARK  189  A    between atoms: _445  and  _447
REMARK  190  A    between atoms: _447  and  _448
REMARK  191  A    between atoms: _450  and  _452
REMARK  192  A    between atoms: _452  and  _453
REMARK  193  A    between atoms: _452  and  _455
REMARK  194  A    between atoms: _455  and  _456
REMARK  195  A    between atoms: _459  and  _461
REMARK  196  A    between atoms: _461  and  _462
REMARK  197  A    between atoms: _461  and  _464
REMARK  198  A    between atoms: _464  and  _465
REMARK  199  A    between atoms: _471  and  _473
REMARK  200  A    between atoms: _473  and  _474
REMARK                            x       y       z     vdW  Elec       q    Type
REMARK                         _______ _______ _______ _____ _____    ______ ____
ROOT
ATOM      1  O   HOH     1     -21.384 -13.456  65.349  0.00  0.00    +0.000 OA
ENDROOT
TORSDOF 0
REMARK  Name = ../refined-set-2016/4cd0/4cd0_pocket.pdb
REMARK  200 active torsions:
REMARK  status: ('A' for Active; 'I' for Inactive)
REMARK    1  A    between atoms: _1  and  _3
REMARK    2  A    between atoms: _3  and  _4
REMARK    3  A    between atoms: _3  and  _6
REMARK    4  A    between atoms: _6  and  _7
REMARK    5  A    between atoms: _7  and  _8
REMARK    6  A    between atoms: _8  and  _9
REMARK    7  A    between atoms: _18  and  _20
REMARK    8  A    between atoms: _20  and  _21
REMARK    9  A    between atoms: _23  and  _25
REMARK   10  A    between atoms: _25  and  _26
REMARK   11  A    between atoms: _25  and  _28
REMARK   12  A    between atoms: _28  and  _29
REMARK   13  A    between atoms: _32  and  _34
REMARK   14  A    between atoms: _34  and  _35
REMARK   15  A    between atoms: _37  and  _39
REMARK   16  A    between atoms: _39  and  _40
REMARK   17  A    between atoms: _39  and  _42
REMARK   18  A    between atoms: _42  and  _43
REMARK   19  A    between atoms: _48  and  _50
REMARK   20  A    between atoms: _50  and  _51
REMARK   21  A    between atoms: _53  and  _55
REMARK   22  A    between atoms: _55  and  _56
REMARK   23  A    between atoms: _59  and  _61
REMARK   24  A    between atoms: _61  and  _62
REMARK   25  A    between atoms: _61  and  _64
REMARK   26  A    between atoms: _64  and  _65
REMARK   27  A    between atoms: _71  and  _73
REMARK   28  A    between atoms: _73  and  _74
REMARK   29  A    between atoms: _76  and  _78
REMARK   30  A    between atoms: _78  and  _79
REMARK   31  A    between atoms: _78  and  _81
REMARK   32  A    between atoms: _81  and  _82
REMARK   33  A    between atoms: _82  and  _83
REMARK   34  A    between atoms: _86  and  _88
REMARK   35  A    between atoms: _88  and  _89
REMARK   36  A    between atoms: _88  and  _91
REMARK   37  A    between atoms: _94  and  _96
REMARK   38  A    between atoms: _96  and  _97
REMARK   39  A    between atoms: _96  and  _99
REMARK   40  A    between atoms: _99  and  _100
REMARK   41  A    between atoms: _105  and  _106
REMARK   42  A    between atoms: _108  and  _110
REMARK   43  A    between atoms: _110  and  _111
REMARK   44  A    between atoms: _110  and  _113
REMARK   45  A    between atoms: _113  and  _114
REMARK   46  A    between atoms: _114  and  _115
REMARK   47  A    between atoms: _118  and  _120
REMARK   48  A    between atoms: _120  and  _121
REMARK   49  A    between atoms: _120  and  _123
REMARK   50  A    between atoms: _126  and  _128
REMARK   51  A    between atoms: _128  and  _129
REMARK   52  A    between atoms: _132  and  _134
REMARK   53  A    between atoms: _134  and  _135
REMARK   54  A    between atoms: _134  and  _137
REMARK   55  A    between atoms: _140  and  _142
REMARK   56  A    between atoms: _142  and  _143
REMARK   57  A    between atoms: _142  and  _145
REMARK   58  A    between atoms: _145  and  _146
REMARK   59  A    between atoms: _146  and  _147
REMARK   60  A    between atoms: _147  and  _148
REMARK   61  A    between atoms: _148  and  _149
REMARK   62  A    between atoms: _153  and  _155
REMARK   63  A    between atoms: _155  and  _156
REMARK   64  A    between atoms: _155  and  _158
REMARK   65  A    between atoms: _158  and  _159
REMARK   66  A    between atoms: _162  and  _164
REMARK   67  A    between atoms: _164  and  _165
REMARK   68  A    between atoms: _164  and  _167
REMARK   69  A    between atoms: _167  and  _168
REMARK   70  A    between atoms: _168  and  _169
REMARK   71  A    between atoms: _172  and  _174
REMARK   72  A    between atoms: _174  and  _175
REMARK   73  A    between atoms: _174  and  _177
REMARK   74  A    between atoms: _180  and  _182
REMARK   75  A    between atoms: _182  and  _183
REMARK   76  A    between atoms: _182  and  _185
REMARK   77  A    between atoms: _185  and  _186
REMARK   78  A    between atoms: _186  and  _187
REMARK   79  A    between atoms: _187  and  _188
REMARK   80  A    between atoms: _197  and  _199
REMARK   81  A    between atoms: _199  and  _200
REMARK   82  A    between atoms: _199  and  _202
REMARK   83  A    between atoms: _202  and  _203
REMARK   84  A    between atoms: _206  and  _208
REMARK   85  A    between atoms: _208  and  _209
REMARK   86  A    between atoms: _208  and  _211
REMARK   87  A    between atoms: _211  and  _212
REMARK   88  A    between atoms: _215  and  _217
REMARK   89  A    between atoms: _217  and  _218
REMARK   90  A    between atoms: _217  and  _220
REMARK   91  A    between atoms: _220  and  _221
REMARK   92  A    between atoms: _221  and  _222
REMARK   93  A    between atoms: _224  and  _226
REMARK   94  A    between atoms: _226  and  _227
REMARK   95  A    between atoms: _226  and  _229
REMARK   96  A    between atoms: _229  and  _230
REMARK   97  A    between atoms: _230  and  _231
REMARK   98  A    between atoms: _234  and  _236
REMARK   99  A    between atoms: _236  and  _237
REMARK  100  A    between atoms: _236  and  _239
REMARK  101  A    between atoms: _239  and  _240
REMARK  102  A    between atoms: _243  and  _245
REMARK  103  A    between atoms: _245  and  _246
REMARK  104  A    between atoms: _245  and  _248
REMARK  105  A    between atoms: _248  and  _249
REMARK  106  A    between atoms: _249  and  _250
REMARK  107  A    between atoms: _252  and  _254
REMARK  108  A    between atoms: _254  and  _255
REMARK  109  A    between atoms: _258  and  _260
REMARK  110  A    between atoms: _260  and  _261
REMARK  111  A    between atoms: _263  and  _265
REMARK  112  A    between atoms: _265  and  _266
REMARK  113  A    between atoms: _268  and  _270
REMARK  114  A    between atoms: _270  and  _271
REMARK  115  A    between atoms: _270  and  _273
REMARK  116  A    between atoms: _273  and  _274
REMARK  117  A    between atoms: _277  and  _279
REMARK  118  A    between atoms: _279  and  _280
REMARK  119  A    between atoms: _279  and  _282
REMARK  120  A    between atoms: _282  and  _283
REMARK  121  A    between atoms: _286  and  _288
REMARK  122  A    between atoms: _288  and  _289
REMARK  123  A    between atoms: _288  and  _291
REMARK  124  A    between atoms: _291  and  _292
REMARK  125  A    between atoms: _292  and  _293
REMARK  126  A    between atoms: _293  and  _294
REMARK  127  A    between atoms: _294  and  _295
REMARK  128  A    between atoms: _299  and  _301
REMARK  129  A    between atoms: _301  and  _302
REMARK  130  A    between atoms: _301  and  _304
REMARK  131  A    between atoms: _304  and  _305
REMARK  132  A    between atoms: _307  and  _309
REMARK  133  A    between atoms: _309  and  _310
REMARK  134  A    between atoms: _309  and  _312
REMARK  135  A    between atoms: _312  and  _313
REMARK  136  A    between atoms: _319  and  _321
REMARK  137  A    between atoms: _321  and  _322
REMARK  138  A    between atoms: _321  and  _324
REMARK  139  A    between atoms: _324  and  _325
REMARK  140  A    between atoms: _328  and  _330
REMARK  141  A    between atoms: _330  and  _331
REMARK  142  A    between atoms: _330  and  _333
REMARK  143  A    between atoms: _333  and  _334
REMARK  144  A    between atoms: _334  and  _335
REMARK  145  A    between atoms: _338  and  _340
REMARK  146  A    between atoms: _340  and  _341
REMARK  147  A    between atoms: _340  and  _343
REMARK  148  A    between atoms: _343  and  _344
REMARK  149  A    between atoms: _349  and  _351
REMARK  150  A    between atoms: _351  and  _352
REMARK  151  A    between atoms: _355  and  _357
REMARK  152  A    between atoms: _357  and  _358
REMARK  153  A    between atoms: _361  and  _363
REMARK  154  A    between atoms: _363  and  _364
REMARK  155  A    between atoms: _363  and  _366
REMARK  156  A    between atoms: _366  and  _367
REMARK  157  A    between atoms: _367  and  _368
REMARK  158  A    between atoms: _368  and  _369
REMARK  159  A    between atoms: _378  and  _380
REMARK  160  A    between atoms: _380  and  _381
REMARK  161  A    between atoms: _380  and  _383
REMARK  162  A    between atoms: _383  and  _384
REMARK  163  A    between atoms: _389  and  _391
REMARK  164  A    between atoms: _391  and  _392
REMARK  165  A    between atoms: _391  and  _394
REMARK  166  A    between atoms: _396  and  _398
REMARK  167  A    between atoms: _398  and  _399
REMARK  168  A    between atoms: _398  and  _401
REMARK  169  A    between atoms: _401  and  _402
REMARK  170  A    between atoms: _405  and  _407
REMARK  171  A    between atoms: _407  and  _408
REMARK  172  A    between atoms: _407  and  _410
REMARK  173  A    between atoms: _410  and  _411
REMARK  174  A    between atoms: _414  and  _416
REMARK  175  A    between atoms: _416  and  _417
REMARK  176  A    between atoms: _416  and  _419
REMARK  177  A    between atoms: _419  and  _420
REMARK  178  A    between atoms: _423  and  _425
REMARK  179  A    between atoms: _425  and  _426
REMARK  180  A    between atoms: _425  and  _428
REMARK  181  A    between atoms: _428  and  _429
REMARK  182  A    between atoms: _429  and  _430
REMARK  183  A    between atoms: _430  and  _431
REMARK  184  A    between atoms: _431  and  _432
REMARK  185  A    between atoms: _436  and  _438
REMARK  186  A    between atoms: _438  and  _439
REMARK  187  A    between atoms: _438  and  _441
REMARK  188  A    between atoms: _441  and  _442
REMARK  189  A    between atoms: _445  and  _447
REMARK  190  A    between atoms: _447  and  _448
REMARK  191  A    between atoms: _450  and  _452
REMARK  192  A    between atoms: _452  and  _453
REMARK  193  A    between atoms: _452  and  _455
REMARK  194  A    between atoms: _455  and  _456
REMARK  195  A    between atoms: _459  and  _461
REMARK  196  A    between atoms: _461  and  _462
REMARK  197  A    between atoms: _461  and  _464
REMARK  198  A    between atoms: _464  and  _465
REMARK  199  A    between atoms: _471  and  _473
REMARK  200  A    between atoms: _473  and  _474
REMARK                            x       y       z     vdW  Elec       q    Type
REMARK                         _______ _______ _______ _____ _____    ______ ____
ROOT
ATOM      1  O   HOH     1     -39.145 -12.370  61.200  0.00  0.00    +0.000 OA
ENDROOT
TORSDOF 0
REMARK  Name = ../refined-set-2016/4cd0/4cd0_pocket.pdb
REMARK  200 active torsions:
REMARK  status: ('A' for Active; 'I' for Inactive)
REMARK    1  A    between atoms: _1  and  _3
REMARK    2  A    between atoms: _3  and  _4
REMARK    3  A    between atoms: _3  and  _6
REMARK    4  A    between atoms: _6  and  _7
REMARK    5  A    between atoms: _7  and  _8
REMARK    6  A    between atoms: _8  and  _9
REMARK    7  A    between atoms: _18  and  _20
REMARK    8  A    between atoms: _20  and  _21
REMARK    9  A    between atoms: _23  and  _25
REMARK   10  A    between atoms: _25  and  _26
REMARK   11  A    between atoms: _25  and  _28
REMARK   12  A    between atoms: _28  and  _29
REMARK   13  A    between atoms: _32  and  _34
REMARK   14  A    between atoms: _34  and  _35
REMARK   15  A    between atoms: _37  and  _39
REMARK   16  A    between atoms: _39  and  _40
REMARK   17  A    between atoms: _39  and  _42
REMARK   18  A    between atoms: _42  and  _43
REMARK   19  A    between atoms: _48  and  _50
REMARK   20  A    between atoms: _50  and  _51
REMARK   21  A    between atoms: _53  and  _55
REMARK   22  A    between atoms: _55  and  _56
REMARK   23  A    between atoms: _59  and  _61
REMARK   24  A    between atoms: _61  and  _62
REMARK   25  A    between atoms: _61  and  _64
REMARK   26  A    between atoms: _64  and  _65
REMARK   27  A    between atoms: _71  and  _73
REMARK   28  A    between atoms: _73  and  _74
REMARK   29  A    between atoms: _76  and  _78
REMARK   30  A    between atoms: _78  and  _79
REMARK   31  A    between atoms: _78  and  _81
REMARK   32  A    between atoms: _81  and  _82
REMARK   33  A    between atoms: _82  and  _83
REMARK   34  A    between atoms: _86  and  _88
REMARK   35  A    between atoms: _88  and  _89
REMARK   36  A    between atoms: _88  and  _91
REMARK   37  A    between atoms: _94  and  _96
REMARK   38  A    between atoms: _96  and  _97
REMARK   39  A    between atoms: _96  and  _99
REMARK   40  A    between atoms: _99  and  _100
REMARK   41  A    between atoms: _105  and  _106
REMARK   42  A    between atoms: _108  and  _110
REMARK   43  A    between atoms: _110  and  _111
REMARK   44  A    between atoms: _110  and  _113
REMARK   45  A    between atoms: _113  and  _114
REMARK   46  A    between atoms: _114  and  _115
REMARK   47  A    between atoms: _118  and  _120
REMARK   48  A    between atoms: _120  and  _121
REMARK   49  A    between atoms: _120  and  _123
REMARK   50  A    between atoms: _126  and  _128
REMARK   51  A    between atoms: _128  and  _129
REMARK   52  A    between atoms: _132  and  _134
REMARK   53  A    between atoms: _134  and  _135
REMARK   54  A    between atoms: _134  and  _137
REMARK   55  A    between atoms: _140  and  _142
REMARK   56  A    between atoms: _142  and  _143
REMARK   57  A    between atoms: _142  and  _145
REMARK   58  A    between atoms: _145  and  _146
REMARK   59  A    between atoms: _146  and  _147
REMARK   60  A    between atoms: _147  and  _148
REMARK   61  A    between atoms: _148  and  _149
REMARK   62  A    between atoms: _153  and  _155
REMARK   63  A    between atoms: _155  and  _156
REMARK   64  A    between atoms: _155  and  _158
REMARK   65  A    between atoms: _158  and  _159
REMARK   66  A    between atoms: _162  and  _164
REMARK   67  A    between atoms: _164  and  _165
REMARK   68  A    between atoms: _164  and  _167
REMARK   69  A    between atoms: _167  and  _168
REMARK   70  A    between atoms: _168  and  _169
REMARK   71  A    between atoms: _172  and  _174
REMARK   72  A    between atoms: _174  and  _175
REMARK   73  A    between atoms: _174  and  _177
REMARK   74  A    between atoms: _180  and  _182
REMARK   75  A    between atoms: _182  and  _183
REMARK   76  A    between atoms: _182  and  _185
REMARK   77  A    between atoms: _185  and  _186
REMARK   78  A    between atoms: _186  and  _187
REMARK   79  A    between atoms: _187  and  _188
REMARK   80  A    between atoms: _197  and  _199
REMARK   81  A    between atoms: _199  and  _200
REMARK   82  A    between atoms: _199  and  _202
REMARK   83  A    between atoms: _202  and  _203
REMARK   84  A    between atoms: _206  and  _208
REMARK   85  A    between atoms: _208  and  _209
REMARK   86  A    between atoms: _208  and  _211
REMARK   87  A    between atoms: _211  and  _212
REMARK   88  A    between atoms: _215  and  _217
REMARK   89  A    between atoms: _217  and  _218
REMARK   90  A    between atoms: _217  and  _220
REMARK   91  A    between atoms: _220  and  _221
REMARK   92  A    between atoms: _221  and  _222
REMARK   93  A    between atoms: _224  and  _226
REMARK   94  A    between atoms: _226  and  _227
REMARK   95  A    between atoms: _226  and  _229
REMARK   96  A    between atoms: _229  and  _230
REMARK   97  A    between atoms: _230  and  _231
REMARK   98  A    between atoms: _234  and  _236
REMARK   99  A    between atoms: _236  and  _237
REMARK  100  A    between atoms: _236  and  _239
REMARK  101  A    between atoms: _239  and  _240
REMARK  102  A    between atoms: _243  and  _245
REMARK  103  A    between atoms: _245  and  _246
REMARK  104  A    between atoms: _245  and  _248
REMARK  105  A    between atoms: _248  and  _249
REMARK  106  A    between atoms: _249  and  _250
REMARK  107  A    between atoms: _252  and  _254
REMARK  108  A    between atoms: _254  and  _255
REMARK  109  A    between atoms: _258  and  _260
REMARK  110  A    between atoms: _260  and  _261
REMARK  111  A    between atoms: _263  and  _265
REMARK  112  A    between atoms: _265  and  _266
REMARK  113  A    between atoms: _268  and  _270
REMARK  114  A    between atoms: _270  and  _271
REMARK  115  A    between atoms: _270  and  _273
REMARK  116  A    between atoms: _273  and  _274
REMARK  117  A    between atoms: _277  and  _279
REMARK  118  A    between atoms: _279  and  _280
REMARK  119  A    between atoms: _279  and  _282
REMARK  120  A    between atoms: _282  and  _283
REMARK  121  A    between atoms: _286  and  _288
REMARK  122  A    between atoms: _288  and  _289
REMARK  123  A    between atoms: _288  and  _291
REMARK  124  A    between atoms: _291  and  _292
REMARK  125  A    between atoms: _292  and  _293
REMARK  126  A    between atoms: _293  and  _294
REMARK  127  A    between atoms: _294  and  _295
REMARK  128  A    between atoms: _299  and  _301
REMARK  129  A    between atoms: _301  and  _302
REMARK  130  A    between atoms: _301  and  _304
REMARK  131  A    between atoms: _304  and  _305
REMARK  132  A    between atoms: _307  and  _309
REMARK  133  A    between atoms: _309  and  _310
REMARK  134  A    between atoms: _309  and  _312
REMARK  135  A    between atoms: _312  and  _313
REMARK  136  A    between atoms: _319  and  _321
REMARK  137  A    between atoms: _321  and  _322
REMARK  138  A    between atoms: _321  and  _324
REMARK  139  A    between atoms: _324  and  _325
REMARK  140  A    between atoms: _328  and  _330
REMARK  141  A    between atoms: _330  and  _331
REMARK  142  A    between atoms: _330  and  _333
REMARK  143  A    between atoms: _333  and  _334
REMARK  144  A    between atoms: _334  and  _335
REMARK  145  A    between atoms: _338  and  _340
REMARK  146  A    between atoms: _340  and  _341
REMARK  147  A    between atoms: _340  and  _343
REMARK  148  A    between atoms: _343  and  _344
REMARK  149  A    between atoms: _349  and  _351
REMARK  150  A    between atoms: _351  and  _352
REMARK  151  A    between atoms: _355  and  _357
REMARK  152  A    between atoms: _357  and  _358
REMARK  153  A    between atoms: _361  and  _363
REMARK  154  A    between atoms: _363  and  _364
REMARK  155  A    between atoms: _363  and  _366
REMARK  156  A    between atoms: _366  and  _367
REMARK  157  A    between atoms: _367  and  _368
REMARK  158  A    between atoms: _368  and  _369
REMARK  159  A    between atoms: _378  and  _380
REMARK  160  A    between atoms: _380  and  _381
REMARK  161  A    between atoms: _380  and  _383
REMARK  162  A    between atoms: _383  and  _384
REMARK  163  A    between atoms: _389  and  _391
REMARK  164  A    between atoms: _391  and  _392
REMARK  165  A    between atoms: _391  and  _394
REMARK  166  A    between atoms: _396  and  _398
REMARK  167  A    between atoms: _398  and  _399
REMARK  168  A    between atoms: _398  and  _401
REMARK  169  A    between atoms: _401  and  _402
REMARK  170  A    between atoms: _405  and  _407
REMARK  171  A    between atoms: _407  and  _408
REMARK  172  A    between atoms: _407  and  _410
REMARK  173  A    between atoms: _410  and  _411
REMARK  174  A    between atoms: _414  and  _416
REMARK  175  A    between atoms: _416  and  _417
REMARK  176  A    between atoms: _416  and  _419
REMARK  177  A    between atoms: _419  and  _420
REMARK  178  A    between atoms: _423  and  _425
REMARK  179  A    between atoms: _425  and  _426
REMARK  180  A    between atoms: _425  and  _428
REMARK  181  A    between atoms: _428  and  _429
REMARK  182  A    between atoms: _429  and  _430
REMARK  183  A    between atoms: _430  and  _431
REMARK  184  A    between atoms: _431  and  _432
REMARK  185  A    between atoms: _436  and  _438
REMARK  186  A    between atoms: _438  and  _439
REMARK  187  A    between atoms: _438  and  _441
REMARK  188  A    between atoms: _441  and  _442
REMARK  189  A    between atoms: _445  and  _447
REMARK  190  A    between atoms: _447  and  _448
REMARK  191  A    between atoms: _450  and  _452
REMARK  192  A    between atoms: _452  and  _453
REMARK  193  A    between atoms: _452  and  _455
REMARK  194  A    between atoms: _455  and  _456
REMARK  195  A    between atoms: _459  and  _461
REMARK  196  A    between atoms: _461  and  _462
REMARK  197  A    between atoms: _461  and  _464
REMARK  198  A    between atoms: _464  and  _465
REMARK  199  A    between atoms: _471  and  _473
REMARK  200  A    between atoms: _473  and  _474
REMARK                            x       y       z     vdW  Elec       q    Type
REMARK                         _______ _______ _______ _____ _____    ______ ____
ROOT
ATOM      1  O   HOH     1     -34.896 -13.070  62.928  0.00  0.00    +0.000 OA
ENDROOT
TORSDOF 0
REMARK  Name = ../refined-set-2016/4cd0/4cd0_pocket.pdb
REMARK  200 active torsions:
REMARK  status: ('A' for Active; 'I' for Inactive)
REMARK    1  A    between atoms: _1  and  _3
REMARK    2  A    between atoms: _3  and  _4
REMARK    3  A    between atoms: _3  and  _6
REMARK    4  A    between atoms: _6  and  _7
REMARK    5  A    between atoms: _7  and  _8
REMARK    6  A    between atoms: _8  and  _9
REMARK    7  A    between atoms: _18  and  _20
REMARK    8  A    between atoms: _20  and  _21
REMARK    9  A    between atoms: _23  and  _25
REMARK   10  A    between atoms: _25  and  _26
REMARK   11  A    between atoms: _25  and  _28
REMARK   12  A    between atoms: _28  and  _29
REMARK   13  A    between atoms: _32  and  _34
REMARK   14  A    between atoms: _34  and  _35
REMARK   15  A    between atoms: _37  and  _39
REMARK   16  A    between atoms: _39  and  _40
REMARK   17  A    between atoms: _39  and  _42
REMARK   18  A    between atoms: _42  and  _43
REMARK   19  A    between atoms: _48  and  _50
REMARK   20  A    between atoms: _50  and  _51
REMARK   21  A    between atoms: _53  and  _55
REMARK   22  A    between atoms: _55  and  _56
REMARK   23  A    between atoms: _59  and  _61
REMARK   24  A    between atoms: _61  and  _62
REMARK   25  A    between atoms: _61  and  _64
REMARK   26  A    between atoms: _64  and  _65
REMARK   27  A    between atoms: _71  and  _73
REMARK   28  A    between atoms: _73  and  _74
REMARK   29  A    between atoms: _76  and  _78
REMARK   30  A    between atoms: _78  and  _79
REMARK   31  A    between atoms: _78  and  _81
REMARK   32  A    between atoms: _81  and  _82
REMARK   33  A    between atoms: _82  and  _83
REMARK   34  A    between atoms: _86  and  _88
REMARK   35  A    between atoms: _88  and  _89
REMARK   36  A    between atoms: _88  and  _91
REMARK   37  A    between atoms: _94  and  _96
REMARK   38  A    between atoms: _96  and  _97
REMARK   39  A    between atoms: _96  and  _99
REMARK   40  A    between atoms: _99  and  _100
REMARK   41  A    between atoms: _105  and  _106
REMARK   42  A    between atoms: _108  and  _110
REMARK   43  A    between atoms: _110  and  _111
REMARK   44  A    between atoms: _110  and  _113
REMARK   45  A    between atoms: _113  and  _114
REMARK   46  A    between atoms: _114  and  _115
REMARK   47  A    between atoms: _118  and  _120
REMARK   48  A    between atoms: _120  and  _121
REMARK   49  A    between atoms: _120  and  _123
REMARK   50  A    between atoms: _126  and  _128
REMARK   51  A    between atoms: _128  and  _129
REMARK   52  A    between atoms: _132  and  _134
REMARK   53  A    between atoms: _134  and  _135
REMARK   54  A    between atoms: _134  and  _137
REMARK   55  A    between atoms: _140  and  _142
REMARK   56  A    between atoms: _142  and  _143
REMARK   57  A    between atoms: _142  and  _145
REMARK   58  A    between atoms: _145  and  _146
REMARK   59  A    between atoms: _146  and  _147
REMARK   60  A    between atoms: _147  and  _148
REMARK   61  A    between atoms: _148  and  _149
REMARK   62  A    between atoms: _153  and  _155
REMARK   63  A    between atoms: _155  and  _156
REMARK   64  A    between atoms: _155  and  _158
REMARK   65  A    between atoms: _158  and  _159
REMARK   66  A    between atoms: _162  and  _164
REMARK   67  A    between atoms: _164  and  _165
REMARK   68  A    between atoms: _164  and  _167
REMARK   69  A    between atoms: _167  and  _168
REMARK   70  A    between atoms: _168  and  _169
REMARK   71  A    between atoms: _172  and  _174
REMARK   72  A    between atoms: _174  and  _175
REMARK   73  A    between atoms: _174  and  _177
REMARK   74  A    between atoms: _180  and  _182
REMARK   75  A    between atoms: _182  and  _183
REMARK   76  A    between atoms: _182  and  _185
REMARK   77  A    between atoms: _185  and  _186
REMARK   78  A    between atoms: _186  and  _187
REMARK   79  A    between atoms: _187  and  _188
REMARK   80  A    between atoms: _197  and  _199
REMARK   81  A    between atoms: _199  and  _200
REMARK   82  A    between atoms: _199  and  _202
REMARK   83  A    between atoms: _202  and  _203
REMARK   84  A    between atoms: _206  and  _208
REMARK   85  A    between atoms: _208  and  _209
REMARK   86  A    between atoms: _208  and  _211
REMARK   87  A    between atoms: _211  and  _212
REMARK   88  A    between atoms: _215  and  _217
REMARK   89  A    between atoms: _217  and  _218
REMARK   90  A    between atoms: _217  and  _220
REMARK   91  A    between atoms: _220  and  _221
REMARK   92  A    between atoms: _221  and  _222
REMARK   93  A    between atoms: _224  and  _226
REMARK   94  A    between atoms: _226  and  _227
REMARK   95  A    between atoms: _226  and  _229
REMARK   96  A    between atoms: _229  and  _230
REMARK   97  A    between atoms: _230  and  _231
REMARK   98  A    between atoms: _234  and  _236
REMARK   99  A    between atoms: _236  and  _237
REMARK  100  A    between atoms: _236  and  _239
REMARK  101  A    between atoms: _239  and  _240
REMARK  102  A    between atoms: _243  and  _245
REMARK  103  A    between atoms: _245  and  _246
REMARK  104  A    between atoms: _245  and  _248
REMARK  105  A    between atoms: _248  and  _249
REMARK  106  A    between atoms: _249  and  _250
REMARK  107  A    between atoms: _252  and  _254
REMARK  108  A    between atoms: _254  and  _255
REMARK  109  A    between atoms: _258  and  _260
REMARK  110  A    between atoms: _260  and  _261
REMARK  111  A    between atoms: _263  and  _265
REMARK  112  A    between atoms: _265  and  _266
REMARK  113  A    between atoms: _268  and  _270
REMARK  114  A    between atoms: _270  and  _271
REMARK  115  A    between atoms: _270  and  _273
REMARK  116  A    between atoms: _273  and  _274
REMARK  117  A    between atoms: _277  and  _279
REMARK  118  A    between atoms: _279  and  _280
REMARK  119  A    between atoms: _279  and  _282
REMARK  120  A    between atoms: _282  and  _283
REMARK  121  A    between atoms: _286  and  _288
REMARK  122  A    between atoms: _288  and  _289
REMARK  123  A    between atoms: _288  and  _291
REMARK  124  A    between atoms: _291  and  _292
REMARK  125  A    between atoms: _292  and  _293
REMARK  126  A    between atoms: _293  and  _294
REMARK  127  A    between atoms: _294  and  _295
REMARK  128  A    between atoms: _299  and  _301
REMARK  129  A    between atoms: _301  and  _302
REMARK  130  A    between atoms: _301  and  _304
REMARK  131  A    between atoms: _304  and  _305
REMARK  132  A    between atoms: _307  and  _309
REMARK  133  A    between atoms: _309  and  _310
REMARK  134  A    between atoms: _309  and  _312
REMARK  135  A    between atoms: _312  and  _313
REMARK  136  A    between atoms: _319  and  _321
REMARK  137  A    between atoms: _321  and  _322
REMARK  138  A    between atoms: _321  and  _324
REMARK  139  A    between atoms: _324  and  _325
REMARK  140  A    between atoms: _328  and  _330
REMARK  141  A    between atoms: _330  and  _331
REMARK  142  A    between atoms: _330  and  _333
REMARK  143  A    between atoms: _333  and  _334
REMARK  144  A    between atoms: _334  and  _335
REMARK  145  A    between atoms: _338  and  _340
REMARK  146  A    between atoms: _340  and  _341
REMARK  147  A    between atoms: _340  and  _343
REMARK  148  A    between atoms: _343  and  _344
REMARK  149  A    between atoms: _349  and  _351
REMARK  150  A    between atoms: _351  and  _352
REMARK  151  A    between atoms: _355  and  _357
REMARK  152  A    between atoms: _357  and  _358
REMARK  153  A    between atoms: _361  and  _363
REMARK  154  A    between atoms: _363  and  _364
REMARK  155  A    between atoms: _363  and  _366
REMARK  156  A    between atoms: _366  and  _367
REMARK  157  A    between atoms: _367  and  _368
REMARK  158  A    between atoms: _368  and  _369
REMARK  159  A    between atoms: _378  and  _380
REMARK  160  A    between atoms: _380  and  _381
REMARK  161  A    between atoms: _380  and  _383
REMARK  162  A    between atoms: _383  and  _384
REMARK  163  A    between atoms: _389  and  _391
REMARK  164  A    between atoms: _391  and  _392
REMARK  165  A    between atoms: _391  and  _394
REMARK  166  A    between atoms: _396  and  _398
REMARK  167  A    between atoms: _398  and  _399
REMARK  168  A    between atoms: _398  and  _401
REMARK  169  A    between atoms: _401  and  _402
REMARK  170  A    between atoms: _405  and  _407
REMARK  171  A    between atoms: _407  and  _408
REMARK  172  A    between atoms: _407  and  _410
REMARK  173  A    between atoms: _410  and  _411
REMARK  174  A    between atoms: _414  and  _416
REMARK  175  A    between atoms: _416  and  _417
REMARK  176  A    between atoms: _416  and  _419
REMARK  177  A    between atoms: _419  and  _420
REMARK  178  A    between atoms: _423  and  _425
REMARK  179  A    between atoms: _425  and  _426
REMARK  180  A    between atoms: _425  and  _428
REMARK  181  A    between atoms: _428  and  _429
REMARK  182  A    between atoms: _429  and  _430
REMARK  183  A    between atoms: _430  and  _431
REMARK  184  A    between atoms: _431  and  _432
REMARK  185  A    between atoms: _436  and  _438
REMARK  186  A    between atoms: _438  and  _439
REMARK  187  A    between atoms: _438  and  _441
REMARK  188  A    between atoms: _441  and  _442
REMARK  189  A    between atoms: _445  and  _447
REMARK  190  A    between atoms: _447  and  _448
REMARK  191  A    between atoms: _450  and  _452
REMARK  192  A    between atoms: _452  and  _453
REMARK  193  A    between atoms: _452  and  _455
REMARK  194  A    between atoms: _455  and  _456
REMARK  195  A    between atoms: _459  and  _461
REMARK  196  A    between atoms: _461  and  _462
REMARK  197  A    between atoms: _461  and  _464
REMARK  198  A    between atoms: _464  and  _465
REMARK  199  A    between atoms: _471  and  _473
REMARK  200  A    between atoms: _473  and  _474
REMARK                            x       y       z     vdW  Elec       q    Type
REMARK                         _______ _______ _______ _____ _____    ______ ____
ROOT
ATOM      1  O   HOH     1     -36.679 -11.195  64.317  0.00  0.00    +0.000 OA
ENDROOT
TORSDOF 0
REMARK  Name = ../refined-set-2016/4cd0/4cd0_pocket.pdb
REMARK  200 active torsions:
REMARK  status: ('A' for Active; 'I' for Inactive)
REMARK    1  A    between atoms: _1  and  _3
REMARK    2  A    between atoms: _3  and  _4
REMARK    3  A    between atoms: _3  and  _6
REMARK    4  A    between atoms: _6  and  _7
REMARK    5  A    between atoms: _7  and  _8
REMARK    6  A    between atoms: _8  and  _9
REMARK    7  A    between atoms: _18  and  _20
REMARK    8  A    between atoms: _20  and  _21
REMARK    9  A    between atoms: _23  and  _25
REMARK   10  A    between atoms: _25  and  _26
REMARK   11  A    between atoms: _25  and  _28
REMARK   12  A    between atoms: _28  and  _29
REMARK   13  A    between atoms: _32  and  _34
REMARK   14  A    between atoms: _34  and  _35
REMARK   15  A    between atoms: _37  and  _39
REMARK   16  A    between atoms: _39  and  _40
REMARK   17  A    between atoms: _39  and  _42
REMARK   18  A    between atoms: _42  and  _43
REMARK   19  A    between atoms: _48  and  _50
REMARK   20  A    between atoms: _50  and  _51
REMARK   21  A    between atoms: _53  and  _55
REMARK   22  A    between atoms: _55  and  _56
REMARK   23  A    between atoms: _59  and  _61
REMARK   24  A    between atoms: _61  and  _62
REMARK   25  A    between atoms: _61  and  _64
REMARK   26  A    between atoms: _64  and  _65
REMARK   27  A    between atoms: _71  and  _73
REMARK   28  A    between atoms: _73  and  _74
REMARK   29  A    between atoms: _76  and  _78
REMARK   30  A    between atoms: _78  and  _79
REMARK   31  A    between atoms: _78  and  _81
REMARK   32  A    between atoms: _81  and  _82
REMARK   33  A    between atoms: _82  and  _83
REMARK   34  A    between atoms: _86  and  _88
REMARK   35  A    between atoms: _88  and  _89
REMARK   36  A    between atoms: _88  and  _91
REMARK   37  A    between atoms: _94  and  _96
REMARK   38  A    between atoms: _96  and  _97
REMARK   39  A    between atoms: _96  and  _99
REMARK   40  A    between atoms: _99  and  _100
REMARK   41  A    between atoms: _105  and  _106
REMARK   42  A    between atoms: _108  and  _110
REMARK   43  A    between atoms: _110  and  _111
REMARK   44  A    between atoms: _110  and  _113
REMARK   45  A    between atoms: _113  and  _114
REMARK   46  A    between atoms: _114  and  _115
REMARK   47  A    between atoms: _118  and  _120
REMARK   48  A    between atoms: _120  and  _121
REMARK   49  A    between atoms: _120  and  _123
REMARK   50  A    between atoms: _126  and  _128
REMARK   51  A    between atoms: _128  and  _129
REMARK   52  A    between atoms: _132  and  _134
REMARK   53  A    between atoms: _134  and  _135
REMARK   54  A    between atoms: _134  and  _137
REMARK   55  A    between atoms: _140  and  _142
REMARK   56  A    between atoms: _142  and  _143
REMARK   57  A    between atoms: _142  and  _145
REMARK   58  A    between atoms: _145  and  _146
REMARK   59  A    between atoms: _146  and  _147
REMARK   60  A    between atoms: _147  and  _148
REMARK   61  A    between atoms: _148  and  _149
REMARK   62  A    between atoms: _153  and  _155
REMARK   63  A    between atoms: _155  and  _156
REMARK   64  A    between atoms: _155  and  _158
REMARK   65  A    between atoms: _158  and  _159
REMARK   66  A    between atoms: _162  and  _164
REMARK   67  A    between atoms: _164  and  _165
REMARK   68  A    between atoms: _164  and  _167
REMARK   69  A    between atoms: _167  and  _168
REMARK   70  A    between atoms: _168  and  _169
REMARK   71  A    between atoms: _172  and  _174
REMARK   72  A    between atoms: _174  and  _175
REMARK   73  A    between atoms: _174  and  _177
REMARK   74  A    between atoms: _180  and  _182
REMARK   75  A    between atoms: _182  and  _183
REMARK   76  A    between atoms: _182  and  _185
REMARK   77  A    between atoms: _185  and  _186
REMARK   78  A    between atoms: _186  and  _187
REMARK   79  A    between atoms: _187  and  _188
REMARK   80  A    between atoms: _197  and  _199
REMARK   81  A    between atoms: _199  and  _200
REMARK   82  A    between atoms: _199  and  _202
REMARK   83  A    between atoms: _202  and  _203
REMARK   84  A    between atoms: _206  and  _208
REMARK   85  A    between atoms: _208  and  _209
REMARK   86  A    between atoms: _208  and  _211
REMARK   87  A    between atoms: _211  and  _212
REMARK   88  A    between atoms: _215  and  _217
REMARK   89  A    between atoms: _217  and  _218
REMARK   90  A    between atoms: _217  and  _220
REMARK   91  A    between atoms: _220  and  _221
REMARK   92  A    between atoms: _221  and  _222
REMARK   93  A    between atoms: _224  and  _226
REMARK   94  A    between atoms: _226  and  _227
REMARK   95  A    between atoms: _226  and  _229
REMARK   96  A    between atoms: _229  and  _230
REMARK   97  A    between atoms: _230  and  _231
REMARK   98  A    between atoms: _234  and  _236
REMARK   99  A    between atoms: _236  and  _237
REMARK  100  A    between atoms: _236  and  _239
REMARK  101  A    between atoms: _239  and  _240
REMARK  102  A    between atoms: _243  and  _245
REMARK  103  A    between atoms: _245  and  _246
REMARK  104  A    between atoms: _245  and  _248
REMARK  105  A    between atoms: _248  and  _249
REMARK  106  A    between atoms: _249  and  _250
REMARK  107  A    between atoms: _252  and  _254
REMARK  108  A    between atoms: _254  and  _255
REMARK  109  A    between atoms: _258  and  _260
REMARK  110  A    between atoms: _260  and  _261
REMARK  111  A    between atoms: _263  and  _265
REMARK  112  A    between atoms: _265  and  _266
REMARK  113  A    between atoms: _268  and  _270
REMARK  114  A    between atoms: _270  and  _271
REMARK  115  A    between atoms: _270  and  _273
REMARK  116  A    between atoms: _273  and  _274
REMARK  117  A    between atoms: _277  and  _279
REMARK  118  A    between atoms: _279  and  _280
REMARK  119  A    between atoms: _279  and  _282
REMARK  120  A    between atoms: _282  and  _283
REMARK  121  A    between atoms: _286  and  _288
REMARK  122  A    between atoms: _288  and  _289
REMARK  123  A    between atoms: _288  and  _291
REMARK  124  A    between atoms: _291  and  _292
REMARK  125  A    between atoms: _292  and  _293
REMARK  126  A    between atoms: _293  and  _294
REMARK  127  A    between atoms: _294  and  _295
REMARK  128  A    between atoms: _299  and  _301
REMARK  129  A    between atoms: _301  and  _302
REMARK  130  A    between atoms: _301  and  _304
REMARK  131  A    between atoms: _304  and  _305
REMARK  132  A    between atoms: _307  and  _309
REMARK  133  A    between atoms: _309  and  _310
REMARK  134  A    between atoms: _309  and  _312
REMARK  135  A    between atoms: _312  and  _313
REMARK  136  A    between atoms: _319  and  _321
REMARK  137  A    between atoms: _321  and  _322
REMARK  138  A    between atoms: _321  and  _324
REMARK  139  A    between atoms: _324  and  _325
REMARK  140  A    between atoms: _328  and  _330
REMARK  141  A    between atoms: _330  and  _331
REMARK  142  A    between atoms: _330  and  _333
REMARK  143  A    between atoms: _333  and  _334
REMARK  144  A    between atoms: _334  and  _335
REMARK  145  A    between atoms: _338  and  _340
REMARK  146  A    between atoms: _340  and  _341
REMARK  147  A    between atoms: _340  and  _343
REMARK  148  A    between atoms: _343  and  _344
REMARK  149  A    between atoms: _349  and  _351
REMARK  150  A    between atoms: _351  and  _352
REMARK  151  A    between atoms: _355  and  _357
REMARK  152  A    between atoms: _357  and  _358
REMARK  153  A    between atoms: _361  and  _363
REMARK  154  A    between atoms: _363  and  _364
REMARK  155  A    between atoms: _363  and  _366
REMARK  156  A    between atoms: _366  and  _367
REMARK  157  A    between atoms: _367  and  _368
REMARK  158  A    between atoms: _368  and  _369
REMARK  159  A    between atoms: _378  and  _380
REMARK  160  A    between atoms: _380  and  _381
REMARK  161  A    between atoms: _380  and  _383
REMARK  162  A    between atoms: _383  and  _384
REMARK  163  A    between atoms: _389  and  _391
REMARK  164  A    between atoms: _391  and  _392
REMARK  165  A    between atoms: _391  and  _394
REMARK  166  A    between atoms: _396  and  _398
REMARK  167  A    between atoms: _398  and  _399
REMARK  168  A    between atoms: _398  and  _401
REMARK  169  A    between atoms: _401  and  _402
REMARK  170  A    between atoms: _405  and  _407
REMARK  171  A    between atoms: _407  and  _408
REMARK  172  A    between atoms: _407  and  _410
REMARK  173  A    between atoms: _410  and  _411
REMARK  174  A    between atoms: _414  and  _416
REMARK  175  A    between atoms: _416  and  _417
REMARK  176  A    between atoms: _416  and  _419
REMARK  177  A    between atoms: _419  and  _420
REMARK  178  A    between atoms: _423  and  _425
REMARK  179  A    between atoms: _425  and  _426
REMARK  180  A    between atoms: _425  and  _428
REMARK  181  A    between atoms: _428  and  _429
REMARK  182  A    between atoms: _429  and  _430
REMARK  183  A    between atoms: _430  and  _431
REMARK  184  A    between atoms: _431  and  _432
REMARK  185  A    between atoms: _436  and  _438
REMARK  186  A    between atoms: _438  and  _439
REMARK  187  A    between atoms: _438  and  _441
REMARK  188  A    between atoms: _441  and  _442
REMARK  189  A    between atoms: _445  and  _447
REMARK  190  A    between atoms: _447  and  _448
REMARK  191  A    between atoms: _450  and  _452
REMARK  192  A    between atoms: _452  and  _453
REMARK  193  A    between atoms: _452  and  _455
REMARK  194  A    between atoms: _455  and  _456
REMARK  195  A    between atoms: _459  and  _461
REMARK  196  A    between atoms: _461  and  _462
REMARK  197  A    between atoms: _461  and  _464
REMARK  198  A    between atoms: _464  and  _465
REMARK  199  A    between atoms: _471  and  _473
REMARK  200  A    between atoms: _473  and  _474
REMARK                            x       y       z     vdW  Elec       q    Type
REMARK                         _______ _______ _______ _____ _____    ______ ____
ROOT
ATOM      1  O   HOH     1     -29.157 -26.692  62.098  0.00  0.00    +0.000 OA
ENDROOT
TORSDOF 0
REMARK  Name = ../refined-set-2016/4cd0/4cd0_pocket.pdb
REMARK  200 active torsions:
REMARK  status: ('A' for Active; 'I' for Inactive)
REMARK    1  A    between atoms: _1  and  _3
REMARK    2  A    between atoms: _3  and  _4
REMARK    3  A    between atoms: _3  and  _6
REMARK    4  A    between atoms: _6  and  _7
REMARK    5  A    between atoms: _7  and  _8
REMARK    6  A    between atoms: _8  and  _9
REMARK    7  A    between atoms: _18  and  _20
REMARK    8  A    between atoms: _20  and  _21
REMARK    9  A    between atoms: _23  and  _25
REMARK   10  A    between atoms: _25  and  _26
REMARK   11  A    between atoms: _25  and  _28
REMARK   12  A    between atoms: _28  and  _29
REMARK   13  A    between atoms: _32  and  _34
REMARK   14  A    between atoms: _34  and  _35
REMARK   15  A    between atoms: _37  and  _39
REMARK   16  A    between atoms: _39  and  _40
REMARK   17  A    between atoms: _39  and  _42
REMARK   18  A    between atoms: _42  and  _43
REMARK   19  A    between atoms: _48  and  _50
REMARK   20  A    between atoms: _50  and  _51
REMARK   21  A    between atoms: _53  and  _55
REMARK   22  A    between atoms: _55  and  _56
REMARK   23  A    between atoms: _59  and  _61
REMARK   24  A    between atoms: _61  and  _62
REMARK   25  A    between atoms: _61  and  _64
REMARK   26  A    between atoms: _64  and  _65
REMARK   27  A    between atoms: _71  and  _73
REMARK   28  A    between atoms: _73  and  _74
REMARK   29  A    between atoms: _76  and  _78
REMARK   30  A    between atoms: _78  and  _79
REMARK   31  A    between atoms: _78  and  _81
REMARK   32  A    between atoms: _81  and  _82
REMARK   33  A    between atoms: _82  and  _83
REMARK   34  A    between atoms: _86  and  _88
REMARK   35  A    between atoms: _88  and  _89
REMARK   36  A    between atoms: _88  and  _91
REMARK   37  A    between atoms: _94  and  _96
REMARK   38  A    between atoms: _96  and  _97
REMARK   39  A    between atoms: _96  and  _99
REMARK   40  A    between atoms: _99  and  _100
REMARK   41  A    between atoms: _105  and  _106
REMARK   42  A    between atoms: _108  and  _110
REMARK   43  A    between atoms: _110  and  _111
REMARK   44  A    between atoms: _110  and  _113
REMARK   45  A    between atoms: _113  and  _114
REMARK   46  A    between atoms: _114  and  _115
REMARK   47  A    between atoms: _118  and  _120
REMARK   48  A    between atoms: _120  and  _121
REMARK   49  A    between atoms: _120  and  _123
REMARK   50  A    between atoms: _126  and  _128
REMARK   51  A    between atoms: _128  and  _129
REMARK   52  A    between atoms: _132  and  _134
REMARK   53  A    between atoms: _134  and  _135
REMARK   54  A    between atoms: _134  and  _137
REMARK   55  A    between atoms: _140  and  _142
REMARK   56  A    between atoms: _142  and  _143
REMARK   57  A    between atoms: _142  and  _145
REMARK   58  A    between atoms: _145  and  _146
REMARK   59  A    between atoms: _146  and  _147
REMARK   60  A    between atoms: _147  and  _148
REMARK   61  A    between atoms: _148  and  _149
REMARK   62  A    between atoms: _153  and  _155
REMARK   63  A    between atoms: _155  and  _156
REMARK   64  A    between atoms: _155  and  _158
REMARK   65  A    between atoms: _158  and  _159
REMARK   66  A    between atoms: _162  and  _164
REMARK   67  A    between atoms: _164  and  _165
REMARK   68  A    between atoms: _164  and  _167
REMARK   69  A    between atoms: _167  and  _168
REMARK   70  A    between atoms: _168  and  _169
REMARK   71  A    between atoms: _172  and  _174
REMARK   72  A    between atoms: _174  and  _175
REMARK   73  A    between atoms: _174  and  _177
REMARK   74  A    between atoms: _180  and  _182
REMARK   75  A    between atoms: _182  and  _183
REMARK   76  A    between atoms: _182  and  _185
REMARK   77  A    between atoms: _185  and  _186
REMARK   78  A    between atoms: _186  and  _187
REMARK   79  A    between atoms: _187  and  _188
REMARK   80  A    between atoms: _197  and  _199
REMARK   81  A    between atoms: _199  and  _200
REMARK   82  A    between atoms: _199  and  _202
REMARK   83  A    between atoms: _202  and  _203
REMARK   84  A    between atoms: _206  and  _208
REMARK   85  A    between atoms: _208  and  _209
REMARK   86  A    between atoms: _208  and  _211
REMARK   87  A    between atoms: _211  and  _212
REMARK   88  A    between atoms: _215  and  _217
REMARK   89  A    between atoms: _217  and  _218
REMARK   90  A    between atoms: _217  and  _220
REMARK   91  A    between atoms: _220  and  _221
REMARK   92  A    between atoms: _221  and  _222
REMARK   93  A    between atoms: _224  and  _226
REMARK   94  A    between atoms: _226  and  _227
REMARK   95  A    between atoms: _226  and  _229
REMARK   96  A    between atoms: _229  and  _230
REMARK   97  A    between atoms: _230  and  _231
REMARK   98  A    between atoms: _234  and  _236
REMARK   99  A    between atoms: _236  and  _237
REMARK  100  A    between atoms: _236  and  _239
REMARK  101  A    between atoms: _239  and  _240
REMARK  102  A    between atoms: _243  and  _245
REMARK  103  A    between atoms: _245  and  _246
REMARK  104  A    between atoms: _245  and  _248
REMARK  105  A    between atoms: _248  and  _249
REMARK  106  A    between atoms: _249  and  _250
REMARK  107  A    between atoms: _252  and  _254
REMARK  108  A    between atoms: _254  and  _255
REMARK  109  A    between atoms: _258  and  _260
REMARK  110  A    between atoms: _260  and  _261
REMARK  111  A    between atoms: _263  and  _265
REMARK  112  A    between atoms: _265  and  _266
REMARK  113  A    between atoms: _268  and  _270
REMARK  114  A    between atoms: _270  and  _271
REMARK  115  A    between atoms: _270  and  _273
REMARK  116  A    between atoms: _273  and  _274
REMARK  117  A    between atoms: _277  and  _279
REMARK  118  A    between atoms: _279  and  _280
REMARK  119  A    between atoms: _279  and  _282
REMARK  120  A    between atoms: _282  and  _283
REMARK  121  A    between atoms: _286  and  _288
REMARK  122  A    between atoms: _288  and  _289
REMARK  123  A    between atoms: _288  and  _291
REMARK  124  A    between atoms: _291  and  _292
REMARK  125  A    between atoms: _292  and  _293
REMARK  126  A    between atoms: _293  and  _294
REMARK  127  A    between atoms: _294  and  _295
REMARK  128  A    between atoms: _299  and  _301
REMARK  129  A    between atoms: _301  and  _302
REMARK  130  A    between atoms: _301  and  _304
REMARK  131  A    between atoms: _304  and  _305
REMARK  132  A    between atoms: _307  and  _309
REMARK  133  A    between atoms: _309  and  _310
REMARK  134  A    between atoms: _309  and  _312
REMARK  135  A    between atoms: _312  and  _313
REMARK  136  A    between atoms: _319  and  _321
REMARK  137  A    between atoms: _321  and  _322
REMARK  138  A    between atoms: _321  and  _324
REMARK  139  A    between atoms: _324  and  _325
REMARK  140  A    between atoms: _328  and  _330
REMARK  141  A    between atoms: _330  and  _331
REMARK  142  A    between atoms: _330  and  _333
REMARK  143  A    between atoms: _333  and  _334
REMARK  144  A    between atoms: _334  and  _335
REMARK  145  A    between atoms: _338  and  _340
REMARK  146  A    between atoms: _340  and  _341
REMARK  147  A    between atoms: _340  and  _343
REMARK  148  A    between atoms: _343  and  _344
REMARK  149  A    between atoms: _349  and  _351
REMARK  150  A    between atoms: _351  and  _352
REMARK  151  A    between atoms: _355  and  _357
REMARK  152  A    between atoms: _357  and  _358
REMARK  153  A    between atoms: _361  and  _363
REMARK  154  A    between atoms: _363  and  _364
REMARK  155  A    between atoms: _363  and  _366
REMARK  156  A    between atoms: _366  and  _367
REMARK  157  A    between atoms: _367  and  _368
REMARK  158  A    between atoms: _368  and  _369
REMARK  159  A    between atoms: _378  and  _380
REMARK  160  A    between atoms: _380  and  _381
REMARK  161  A    between atoms: _380  and  _383
REMARK  162  A    between atoms: _383  and  _384
REMARK  163  A    between atoms: _389  and  _391
REMARK  164  A    between atoms: _391  and  _392
REMARK  165  A    between atoms: _391  and  _394
REMARK  166  A    between atoms: _396  and  _398
REMARK  167  A    between atoms: _398  and  _399
REMARK  168  A    between atoms: _398  and  _401
REMARK  169  A    between atoms: _401  and  _402
REMARK  170  A    between atoms: _405  and  _407
REMARK  171  A    between atoms: _407  and  _408
REMARK  172  A    between atoms: _407  and  _410
REMARK  173  A    between atoms: _410  and  _411
REMARK  174  A    between atoms: _414  and  _416
REMARK  175  A    between atoms: _416  and  _417
REMARK  176  A    between atoms: _416  and  _419
REMARK  177  A    between atoms: _419  and  _420
REMARK  178  A    between atoms: _423  and  _425
REMARK  179  A    between atoms: _425  and  _426
REMARK  180  A    between atoms: _425  and  _428
REMARK  181  A    between atoms: _428  and  _429
REMARK  182  A    between atoms: _429  and  _430
REMARK  183  A    between atoms: _430  and  _431
REMARK  184  A    between atoms: _431  and  _432
REMARK  185  A    between atoms: _436  and  _438
REMARK  186  A    between atoms: _438  and  _439
REMARK  187  A    between atoms: _438  and  _441
REMARK  188  A    between atoms: _441  and  _442
REMARK  189  A    between atoms: _445  and  _447
REMARK  190  A    between atoms: _447  and  _448
REMARK  191  A    between atoms: _450  and  _452
REMARK  192  A    between atoms: _452  and  _453
REMARK  193  A    between atoms: _452  and  _455
REMARK  194  A    between atoms: _455  and  _456
REMARK  195  A    between atoms: _459  and  _461
REMARK  196  A    between atoms: _461  and  _462
REMARK  197  A    between atoms: _461  and  _464
REMARK  198  A    between atoms: _464  and  _465
REMARK  199  A    between atoms: _471  and  _473
REMARK  200  A    between atoms: _473  and  _474
REMARK                            x       y       z     vdW  Elec       q    Type
REMARK                         _______ _______ _______ _____ _____    ______ ____
ROOT
ATOM      1  O   HOH     1     -34.389 -21.817  58.806  0.00  0.00    +0.000 OA
ENDROOT
TORSDOF 0
REMARK  Name = ../refined-set-2016/4cd0/4cd0_pocket.pdb
REMARK  200 active torsions:
REMARK  status: ('A' for Active; 'I' for Inactive)
REMARK    1  A    between atoms: _1  and  _3
REMARK    2  A    between atoms: _3  and  _4
REMARK    3  A    between atoms: _3  and  _6
REMARK    4  A    between atoms: _6  and  _7
REMARK    5  A    between atoms: _7  and  _8
REMARK    6  A    between atoms: _8  and  _9
REMARK    7  A    between atoms: _18  and  _20
REMARK    8  A    between atoms: _20  and  _21
REMARK    9  A    between atoms: _23  and  _25
REMARK   10  A    between atoms: _25  and  _26
REMARK   11  A    between atoms: _25  and  _28
REMARK   12  A    between atoms: _28  and  _29
REMARK   13  A    between atoms: _32  and  _34
REMARK   14  A    between atoms: _34  and  _35
REMARK   15  A    between atoms: _37  and  _39
REMARK   16  A    between atoms: _39  and  _40
REMARK   17  A    between atoms: _39  and  _42
REMARK   18  A    between atoms: _42  and  _43
REMARK   19  A    between atoms: _48  and  _50
REMARK   20  A    between atoms: _50  and  _51
REMARK   21  A    between atoms: _53  and  _55
REMARK   22  A    between atoms: _55  and  _56
REMARK   23  A    between atoms: _59  and  _61
REMARK   24  A    between atoms: _61  and  _62
REMARK   25  A    between atoms: _61  and  _64
REMARK   26  A    between atoms: _64  and  _65
REMARK   27  A    between atoms: _71  and  _73
REMARK   28  A    between atoms: _73  and  _74
REMARK   29  A    between atoms: _76  and  _78
REMARK   30  A    between atoms: _78  and  _79
REMARK   31  A    between atoms: _78  and  _81
REMARK   32  A    between atoms: _81  and  _82
REMARK   33  A    between atoms: _82  and  _83
REMARK   34  A    between atoms: _86  and  _88
REMARK   35  A    between atoms: _88  and  _89
REMARK   36  A    between atoms: _88  and  _91
REMARK   37  A    between atoms: _94  and  _96
REMARK   38  A    between atoms: _96  and  _97
REMARK   39  A    between atoms: _96  and  _99
REMARK   40  A    between atoms: _99  and  _100
REMARK   41  A    between atoms: _105  and  _106
REMARK   42  A    between atoms: _108  and  _110
REMARK   43  A    between atoms: _110  and  _111
REMARK   44  A    between atoms: _110  and  _113
REMARK   45  A    between atoms: _113  and  _114
REMARK   46  A    between atoms: _114  and  _115
REMARK   47  A    between atoms: _118  and  _120
REMARK   48  A    between atoms: _120  and  _121
REMARK   49  A    between atoms: _120  and  _123
REMARK   50  A    between atoms: _126  and  _128
REMARK   51  A    between atoms: _128  and  _129
REMARK   52  A    between atoms: _132  and  _134
REMARK   53  A    between atoms: _134  and  _135
REMARK   54  A    between atoms: _134  and  _137
REMARK   55  A    between atoms: _140  and  _142
REMARK   56  A    between atoms: _142  and  _143
REMARK   57  A    between atoms: _142  and  _145
REMARK   58  A    between atoms: _145  and  _146
REMARK   59  A    between atoms: _146  and  _147
REMARK   60  A    between atoms: _147  and  _148
REMARK   61  A    between atoms: _148  and  _149
REMARK   62  A    between atoms: _153  and  _155
REMARK   63  A    between atoms: _155  and  _156
REMARK   64  A    between atoms: _155  and  _158
REMARK   65  A    between atoms: _158  and  _159
REMARK   66  A    between atoms: _162  and  _164
REMARK   67  A    between atoms: _164  and  _165
REMARK   68  A    between atoms: _164  and  _167
REMARK   69  A    between atoms: _167  and  _168
REMARK   70  A    between atoms: _168  and  _169
REMARK   71  A    between atoms: _172  and  _174
REMARK   72  A    between atoms: _174  and  _175
REMARK   73  A    between atoms: _174  and  _177
REMARK   74  A    between atoms: _180  and  _182
REMARK   75  A    between atoms: _182  and  _183
REMARK   76  A    between atoms: _182  and  _185
REMARK   77  A    between atoms: _185  and  _186
REMARK   78  A    between atoms: _186  and  _187
REMARK   79  A    between atoms: _187  and  _188
REMARK   80  A    between atoms: _197  and  _199
REMARK   81  A    between atoms: _199  and  _200
REMARK   82  A    between atoms: _199  and  _202
REMARK   83  A    between atoms: _202  and  _203
REMARK   84  A    between atoms: _206  and  _208
REMARK   85  A    between atoms: _208  and  _209
REMARK   86  A    between atoms: _208  and  _211
REMARK   87  A    between atoms: _211  and  _212
REMARK   88  A    between atoms: _215  and  _217
REMARK   89  A    between atoms: _217  and  _218
REMARK   90  A    between atoms: _217  and  _220
REMARK   91  A    between atoms: _220  and  _221
REMARK   92  A    between atoms: _221  and  _222
REMARK   93  A    between atoms: _224  and  _226
REMARK   94  A    between atoms: _226  and  _227
REMARK   95  A    between atoms: _226  and  _229
REMARK   96  A    between atoms: _229  and  _230
REMARK   97  A    between atoms: _230  and  _231
REMARK   98  A    between atoms: _234  and  _236
REMARK   99  A    between atoms: _236  and  _237
REMARK  100  A    between atoms: _236  and  _239
REMARK  101  A    between atoms: _239  and  _240
REMARK  102  A    between atoms: _243  and  _245
REMARK  103  A    between atoms: _245  and  _246
REMARK  104  A    between atoms: _245  and  _248
REMARK  105  A    between atoms: _248  and  _249
REMARK  106  A    between atoms: _249  and  _250
REMARK  107  A    between atoms: _252  and  _254
REMARK  108  A    between atoms: _254  and  _255
REMARK  109  A    between atoms: _258  and  _260
REMARK  110  A    between atoms: _260  and  _261
REMARK  111  A    between atoms: _263  and  _265
REMARK  112  A    between atoms: _265  and  _266
REMARK  113  A    between atoms: _268  and  _270
REMARK  114  A    between atoms: _270  and  _271
REMARK  115  A    between atoms: _270  and  _273
REMARK  116  A    between atoms: _273  and  _274
REMARK  117  A    between atoms: _277  and  _279
REMARK  118  A    between atoms: _279  and  _280
REMARK  119  A    between atoms: _279  and  _282
REMARK  120  A    between atoms: _282  and  _283
REMARK  121  A    between atoms: _286  and  _288
REMARK  122  A    between atoms: _288  and  _289
REMARK  123  A    between atoms: _288  and  _291
REMARK  124  A    between atoms: _291  and  _292
REMARK  125  A    between atoms: _292  and  _293
REMARK  126  A    between atoms: _293  and  _294
REMARK  127  A    between atoms: _294  and  _295
REMARK  128  A    between atoms: _299  and  _301
REMARK  129  A    between atoms: _301  and  _302
REMARK  130  A    between atoms: _301  and  _304
REMARK  131  A    between atoms: _304  and  _305
REMARK  132  A    between atoms: _307  and  _309
REMARK  133  A    between atoms: _309  and  _310
REMARK  134  A    between atoms: _309  and  _312
REMARK  135  A    between atoms: _312  and  _313
REMARK  136  A    between atoms: _319  and  _321
REMARK  137  A    between atoms: _321  and  _322
REMARK  138  A    between atoms: _321  and  _324
REMARK  139  A    between atoms: _324  and  _325
REMARK  140  A    between atoms: _328  and  _330
REMARK  141  A    between atoms: _330  and  _331
REMARK  142  A    between atoms: _330  and  _333
REMARK  143  A    between atoms: _333  and  _334
REMARK  144  A    between atoms: _334  and  _335
REMARK  145  A    between atoms: _338  and  _340
REMARK  146  A    between atoms: _340  and  _341
REMARK  147  A    between atoms: _340  and  _343
REMARK  148  A    between atoms: _343  and  _344
REMARK  149  A    between atoms: _349  and  _351
REMARK  150  A    between atoms: _351  and  _352
REMARK  151  A    between atoms: _355  and  _357
REMARK  152  A    between atoms: _357  and  _358
REMARK  153  A    between atoms: _361  and  _363
REMARK  154  A    between atoms: _363  and  _364
REMARK  155  A    between atoms: _363  and  _366
REMARK  156  A    between atoms: _366  and  _367
REMARK  157  A    between atoms: _367  and  _368
REMARK  158  A    between atoms: _368  and  _369
REMARK  159  A    between atoms: _378  and  _380
REMARK  160  A    between atoms: _380  and  _381
REMARK  161  A    between atoms: _380  and  _383
REMARK  162  A    between atoms: _383  and  _384
REMARK  163  A    between atoms: _389  and  _391
REMARK  164  A    between atoms: _391  and  _392
REMARK  165  A    between atoms: _391  and  _394
REMARK  166  A    between atoms: _396  and  _398
REMARK  167  A    between atoms: _398  and  _399
REMARK  168  A    between atoms: _398  and  _401
REMARK  169  A    between atoms: _401  and  _402
REMARK  170  A    between atoms: _405  and  _407
REMARK  171  A    between atoms: _407  and  _408
REMARK  172  A    between atoms: _407  and  _410
REMARK  173  A    between atoms: _410  and  _411
REMARK  174  A    between atoms: _414  and  _416
REMARK  175  A    between atoms: _416  and  _417
REMARK  176  A    between atoms: _416  and  _419
REMARK  177  A    between atoms: _419  and  _420
REMARK  178  A    between atoms: _423  and  _425
REMARK  179  A    between atoms: _425  and  _426
REMARK  180  A    between atoms: _425  and  _428
REMARK  181  A    between atoms: _428  and  _429
REMARK  182  A    between atoms: _429  and  _430
REMARK  183  A    between atoms: _430  and  _431
REMARK  184  A    between atoms: _431  and  _432
REMARK  185  A    between atoms: _436  and  _438
REMARK  186  A    between atoms: _438  and  _439
REMARK  187  A    between atoms: _438  and  _441
REMARK  188  A    between atoms: _441  and  _442
REMARK  189  A    between atoms: _445  and  _447
REMARK  190  A    between atoms: _447  and  _448
REMARK  191  A    between atoms: _450  and  _452
REMARK  192  A    between atoms: _452  and  _453
REMARK  193  A    between atoms: _452  and  _455
REMARK  194  A    between atoms: _455  and  _456
REMARK  195  A    between atoms: _459  and  _461
REMARK  196  A    between atoms: _461  and  _462
REMARK  197  A    between atoms: _461  and  _464
REMARK  198  A    between atoms: _464  and  _465
REMARK  199  A    between atoms: _471  and  _473
REMARK  200  A    between atoms: _473  and  _474
REMARK                            x       y       z     vdW  Elec       q    Type
REMARK                         _______ _______ _______ _____ _____    ______ ____
ROOT
ATOM      1  O   HOH     1     -36.910 -24.829  59.996  0.00  0.00    +0.000 OA
ENDROOT
TORSDOF 0
REMARK  Name = ../refined-set-2016/4cd0/4cd0_pocket.pdb
REMARK  200 active torsions:
REMARK  status: ('A' for Active; 'I' for Inactive)
REMARK    1  A    between atoms: _1  and  _3
REMARK    2  A    between atoms: _3  and  _4
REMARK    3  A    between atoms: _3  and  _6
REMARK    4  A    between atoms: _6  and  _7
REMARK    5  A    between atoms: _7  and  _8
REMARK    6  A    between atoms: _8  and  _9
REMARK    7  A    between atoms: _18  and  _20
REMARK    8  A    between atoms: _20  and  _21
REMARK    9  A    between atoms: _23  and  _25
REMARK   10  A    between atoms: _25  and  _26
REMARK   11  A    between atoms: _25  and  _28
REMARK   12  A    between atoms: _28  and  _29
REMARK   13  A    between atoms: _32  and  _34
REMARK   14  A    between atoms: _34  and  _35
REMARK   15  A    between atoms: _37  and  _39
REMARK   16  A    between atoms: _39  and  _40
REMARK   17  A    between atoms: _39  and  _42
REMARK   18  A    between atoms: _42  and  _43
REMARK   19  A    between atoms: _48  and  _50
REMARK   20  A    between atoms: _50  and  _51
REMARK   21  A    between atoms: _53  and  _55
REMARK   22  A    between atoms: _55  and  _56
REMARK   23  A    between atoms: _59  and  _61
REMARK   24  A    between atoms: _61  and  _62
REMARK   25  A    between atoms: _61  and  _64
REMARK   26  A    between atoms: _64  and  _65
REMARK   27  A    between atoms: _71  and  _73
REMARK   28  A    between atoms: _73  and  _74
REMARK   29  A    between atoms: _76  and  _78
REMARK   30  A    between atoms: _78  and  _79
REMARK   31  A    between atoms: _78  and  _81
REMARK   32  A    between atoms: _81  and  _82
REMARK   33  A    between atoms: _82  and  _83
REMARK   34  A    between atoms: _86  and  _88
REMARK   35  A    between atoms: _88  and  _89
REMARK   36  A    between atoms: _88  and  _91
REMARK   37  A    between atoms: _94  and  _96
REMARK   38  A    between atoms: _96  and  _97
REMARK   39  A    between atoms: _96  and  _99
REMARK   40  A    between atoms: _99  and  _100
REMARK   41  A    between atoms: _105  and  _106
REMARK   42  A    between atoms: _108  and  _110
REMARK   43  A    between atoms: _110  and  _111
REMARK   44  A    between atoms: _110  and  _113
REMARK   45  A    between atoms: _113  and  _114
REMARK   46  A    between atoms: _114  and  _115
REMARK   47  A    between atoms: _118  and  _120
REMARK   48  A    between atoms: _120  and  _121
REMARK   49  A    between atoms: _120  and  _123
REMARK   50  A    between atoms: _126  and  _128
REMARK   51  A    between atoms: _128  and  _129
REMARK   52  A    between atoms: _132  and  _134
REMARK   53  A    between atoms: _134  and  _135
REMARK   54  A    between atoms: _134  and  _137
REMARK   55  A    between atoms: _140  and  _142
REMARK   56  A    between atoms: _142  and  _143
REMARK   57  A    between atoms: _142  and  _145
REMARK   58  A    between atoms: _145  and  _146
REMARK   59  A    between atoms: _146  and  _147
REMARK   60  A    between atoms: _147  and  _148
REMARK   61  A    between atoms: _148  and  _149
REMARK   62  A    between atoms: _153  and  _155
REMARK   63  A    between atoms: _155  and  _156
REMARK   64  A    between atoms: _155  and  _158
REMARK   65  A    between atoms: _158  and  _159
REMARK   66  A    between atoms: _162  and  _164
REMARK   67  A    between atoms: _164  and  _165
REMARK   68  A    between atoms: _164  and  _167
REMARK   69  A    between atoms: _167  and  _168
REMARK   70  A    between atoms: _168  and  _169
REMARK   71  A    between atoms: _172  and  _174
REMARK   72  A    between atoms: _174  and  _175
REMARK   73  A    between atoms: _174  and  _177
REMARK   74  A    between atoms: _180  and  _182
REMARK   75  A    between atoms: _182  and  _183
REMARK   76  A    between atoms: _182  and  _185
REMARK   77  A    between atoms: _185  and  _186
REMARK   78  A    between atoms: _186  and  _187
REMARK   79  A    between atoms: _187  and  _188
REMARK   80  A    between atoms: _197  and  _199
REMARK   81  A    between atoms: _199  and  _200
REMARK   82  A    between atoms: _199  and  _202
REMARK   83  A    between atoms: _202  and  _203
REMARK   84  A    between atoms: _206  and  _208
REMARK   85  A    between atoms: _208  and  _209
REMARK   86  A    between atoms: _208  and  _211
REMARK   87  A    between atoms: _211  and  _212
REMARK   88  A    between atoms: _215  and  _217
REMARK   89  A    between atoms: _217  and  _218
REMARK   90  A    between atoms: _217  and  _220
REMARK   91  A    between atoms: _220  and  _221
REMARK   92  A    between atoms: _221  and  _222
REMARK   93  A    between atoms: _224  and  _226
REMARK   94  A    between atoms: _226  and  _227
REMARK   95  A    between atoms: _226  and  _229
REMARK   96  A    between atoms: _229  and  _230
REMARK   97  A    between atoms: _230  and  _231
REMARK   98  A    between atoms: _234  and  _236
REMARK   99  A    between atoms: _236  and  _237
REMARK  100  A    between atoms: _236  and  _239
REMARK  101  A    between atoms: _239  and  _240
REMARK  102  A    between atoms: _243  and  _245
REMARK  103  A    between atoms: _245  and  _246
REMARK  104  A    between atoms: _245  and  _248
REMARK  105  A    between atoms: _248  and  _249
REMARK  106  A    between atoms: _249  and  _250
REMARK  107  A    between atoms: _252  and  _254
REMARK  108  A    between atoms: _254  and  _255
REMARK  109  A    between atoms: _258  and  _260
REMARK  110  A    between atoms: _260  and  _261
REMARK  111  A    between atoms: _263  and  _265
REMARK  112  A    between atoms: _265  and  _266
REMARK  113  A    between atoms: _268  and  _270
REMARK  114  A    between atoms: _270  and  _271
REMARK  115  A    between atoms: _270  and  _273
REMARK  116  A    between atoms: _273  and  _274
REMARK  117  A    between atoms: _277  and  _279
REMARK  118  A    between atoms: _279  and  _280
REMARK  119  A    between atoms: _279  and  _282
REMARK  120  A    between atoms: _282  and  _283
REMARK  121  A    between atoms: _286  and  _288
REMARK  122  A    between atoms: _288  and  _289
REMARK  123  A    between atoms: _288  and  _291
REMARK  124  A    between atoms: _291  and  _292
REMARK  125  A    between atoms: _292  and  _293
REMARK  126  A    between atoms: _293  and  _294
REMARK  127  A    between atoms: _294  and  _295
REMARK  128  A    between atoms: _299  and  _301
REMARK  129  A    between atoms: _301  and  _302
REMARK  130  A    between atoms: _301  and  _304
REMARK  131  A    between atoms: _304  and  _305
REMARK  132  A    between atoms: _307  and  _309
REMARK  133  A    between atoms: _309  and  _310
REMARK  134  A    between atoms: _309  and  _312
REMARK  135  A    between atoms: _312  and  _313
REMARK  136  A    between atoms: _319  and  _321
REMARK  137  A    between atoms: _321  and  _322
REMARK  138  A    between atoms: _321  and  _324
REMARK  139  A    between atoms: _324  and  _325
REMARK  140  A    between atoms: _328  and  _330
REMARK  141  A    between atoms: _330  and  _331
REMARK  142  A    between atoms: _330  and  _333
REMARK  143  A    between atoms: _333  and  _334
REMARK  144  A    between atoms: _334  and  _335
REMARK  145  A    between atoms: _338  and  _340
REMARK  146  A    between atoms: _340  and  _341
REMARK  147  A    between atoms: _340  and  _343
REMARK  148  A    between atoms: _343  and  _344
REMARK  149  A    between atoms: _349  and  _351
REMARK  150  A    between atoms: _351  and  _352
REMARK  151  A    between atoms: _355  and  _357
REMARK  152  A    between atoms: _357  and  _358
REMARK  153  A    between atoms: _361  and  _363
REMARK  154  A    between atoms: _363  and  _364
REMARK  155  A    between atoms: _363  and  _366
REMARK  156  A    between atoms: _366  and  _367
REMARK  157  A    between atoms: _367  and  _368
REMARK  158  A    between atoms: _368  and  _369
REMARK  159  A    between atoms: _378  and  _380
REMARK  160  A    between atoms: _380  and  _381
REMARK  161  A    between atoms: _380  and  _383
REMARK  162  A    between atoms: _383  and  _384
REMARK  163  A    between atoms: _389  and  _391
REMARK  164  A    between atoms: _391  and  _392
REMARK  165  A    between atoms: _391  and  _394
REMARK  166  A    between atoms: _396  and  _398
REMARK  167  A    between atoms: _398  and  _399
REMARK  168  A    between atoms: _398  and  _401
REMARK  169  A    between atoms: _401  and  _402
REMARK  170  A    between atoms: _405  and  _407
REMARK  171  A    between atoms: _407  and  _408
REMARK  172  A    between atoms: _407  and  _410
REMARK  173  A    between atoms: _410  and  _411
REMARK  174  A    between atoms: _414  and  _416
REMARK  175  A    between atoms: _416  and  _417
REMARK  176  A    between atoms: _416  and  _419
REMARK  177  A    between atoms: _419  and  _420
REMARK  178  A    between atoms: _423  and  _425
REMARK  179  A    between atoms: _425  and  _426
REMARK  180  A    between atoms: _425  and  _428
REMARK  181  A    between atoms: _428  and  _429
REMARK  182  A    between atoms: _429  and  _430
REMARK  183  A    between atoms: _430  and  _431
REMARK  184  A    between atoms: _431  and  _432
REMARK  185  A    between atoms: _436  and  _438
REMARK  186  A    between atoms: _438  and  _439
REMARK  187  A    between atoms: _438  and  _441
REMARK  188  A    between atoms: _441  and  _442
REMARK  189  A    between atoms: _445  and  _447
REMARK  190  A    between atoms: _447  and  _448
REMARK  191  A    between atoms: _450  and  _452
REMARK  192  A    between atoms: _452  and  _453
REMARK  193  A    between atoms: _452  and  _455
REMARK  194  A    between atoms: _455  and  _456
REMARK  195  A    between atoms: _459  and  _461
REMARK  196  A    between atoms: _461  and  _462
REMARK  197  A    between atoms: _461  and  _464
REMARK  198  A    between atoms: _464  and  _465
REMARK  199  A    between atoms: _471  and  _473
REMARK  200  A    between atoms: _473  and  _474
REMARK                            x       y       z     vdW  Elec       q    Type
REMARK                         _______ _______ _______ _____ _____    ______ ____
ROOT
ATOM      1  O   HOH     1     -34.354 -30.549  57.758  0.00  0.00    +0.000 OA
ENDROOT
TORSDOF 0
REMARK  Name = ../refined-set-2016/4cd0/4cd0_pocket.pdb
REMARK  200 active torsions:
REMARK  status: ('A' for Active; 'I' for Inactive)
REMARK    1  A    between atoms: _1  and  _3
REMARK    2  A    between atoms: _3  and  _4
REMARK    3  A    between atoms: _3  and  _6
REMARK    4  A    between atoms: _6  and  _7
REMARK    5  A    between atoms: _7  and  _8
REMARK    6  A    between atoms: _8  and  _9
REMARK    7  A    between atoms: _18  and  _20
REMARK    8  A    between atoms: _20  and  _21
REMARK    9  A    between atoms: _23  and  _25
REMARK   10  A    between atoms: _25  and  _26
REMARK   11  A    between atoms: _25  and  _28
REMARK   12  A    between atoms: _28  and  _29
REMARK   13  A    between atoms: _32  and  _34
REMARK   14  A    between atoms: _34  and  _35
REMARK   15  A    between atoms: _37  and  _39
REMARK   16  A    between atoms: _39  and  _40
REMARK   17  A    between atoms: _39  and  _42
REMARK   18  A    between atoms: _42  and  _43
REMARK   19  A    between atoms: _48  and  _50
REMARK   20  A    between atoms: _50  and  _51
REMARK   21  A    between atoms: _53  and  _55
REMARK   22  A    between atoms: _55  and  _56
REMARK   23  A    between atoms: _59  and  _61
REMARK   24  A    between atoms: _61  and  _62
REMARK   25  A    between atoms: _61  and  _64
REMARK   26  A    between atoms: _64  and  _65
REMARK   27  A    between atoms: _71  and  _73
REMARK   28  A    between atoms: _73  and  _74
REMARK   29  A    between atoms: _76  and  _78
REMARK   30  A    between atoms: _78  and  _79
REMARK   31  A    between atoms: _78  and  _81
REMARK   32  A    between atoms: _81  and  _82
REMARK   33  A    between atoms: _82  and  _83
REMARK   34  A    between atoms: _86  and  _88
REMARK   35  A    between atoms: _88  and  _89
REMARK   36  A    between atoms: _88  and  _91
REMARK   37  A    between atoms: _94  and  _96
REMARK   38  A    between atoms: _96  and  _97
REMARK   39  A    between atoms: _96  and  _99
REMARK   40  A    between atoms: _99  and  _100
REMARK   41  A    between atoms: _105  and  _106
REMARK   42  A    between atoms: _108  and  _110
REMARK   43  A    between atoms: _110  and  _111
REMARK   44  A    between atoms: _110  and  _113
REMARK   45  A    between atoms: _113  and  _114
REMARK   46  A    between atoms: _114  and  _115
REMARK   47  A    between atoms: _118  and  _120
REMARK   48  A    between atoms: _120  and  _121
REMARK   49  A    between atoms: _120  and  _123
REMARK   50  A    between atoms: _126  and  _128
REMARK   51  A    between atoms: _128  and  _129
REMARK   52  A    between atoms: _132  and  _134
REMARK   53  A    between atoms: _134  and  _135
REMARK   54  A    between atoms: _134  and  _137
REMARK   55  A    between atoms: _140  and  _142
REMARK   56  A    between atoms: _142  and  _143
REMARK   57  A    between atoms: _142  and  _145
REMARK   58  A    between atoms: _145  and  _146
REMARK   59  A    between atoms: _146  and  _147
REMARK   60  A    between atoms: _147  and  _148
REMARK   61  A    between atoms: _148  and  _149
REMARK   62  A    between atoms: _153  and  _155
REMARK   63  A    between atoms: _155  and  _156
REMARK   64  A    between atoms: _155  and  _158
REMARK   65  A    between atoms: _158  and  _159
REMARK   66  A    between atoms: _162  and  _164
REMARK   67  A    between atoms: _164  and  _165
REMARK   68  A    between atoms: _164  and  _167
REMARK   69  A    between atoms: _167  and  _168
REMARK   70  A    between atoms: _168  and  _169
REMARK   71  A    between atoms: _172  and  _174
REMARK   72  A    between atoms: _174  and  _175
REMARK   73  A    between atoms: _174  and  _177
REMARK   74  A    between atoms: _180  and  _182
REMARK   75  A    between atoms: _182  and  _183
REMARK   76  A    between atoms: _182  and  _185
REMARK   77  A    between atoms: _185  and  _186
REMARK   78  A    between atoms: _186  and  _187
REMARK   79  A    between atoms: _187  and  _188
REMARK   80  A    between atoms: _197  and  _199
REMARK   81  A    between atoms: _199  and  _200
REMARK   82  A    between atoms: _199  and  _202
REMARK   83  A    between atoms: _202  and  _203
REMARK   84  A    between atoms: _206  and  _208
REMARK   85  A    between atoms: _208  and  _209
REMARK   86  A    between atoms: _208  and  _211
REMARK   87  A    between atoms: _211  and  _212
REMARK   88  A    between atoms: _215  and  _217
REMARK   89  A    between atoms: _217  and  _218
REMARK   90  A    between atoms: _217  and  _220
REMARK   91  A    between atoms: _220  and  _221
REMARK   92  A    between atoms: _221  and  _222
REMARK   93  A    between atoms: _224  and  _226
REMARK   94  A    between atoms: _226  and  _227
REMARK   95  A    between atoms: _226  and  _229
REMARK   96  A    between atoms: _229  and  _230
REMARK   97  A    between atoms: _230  and  _231
REMARK   98  A    between atoms: _234  and  _236
REMARK   99  A    between atoms: _236  and  _237
REMARK  100  A    between atoms: _236  and  _239
REMARK  101  A    between atoms: _239  and  _240
REMARK  102  A    between atoms: _243  and  _245
REMARK  103  A    between atoms: _245  and  _246
REMARK  104  A    between atoms: _245  and  _248
REMARK  105  A    between atoms: _248  and  _249
REMARK  106  A    between atoms: _249  and  _250
REMARK  107  A    between atoms: _252  and  _254
REMARK  108  A    between atoms: _254  and  _255
REMARK  109  A    between atoms: _258  and  _260
REMARK  110  A    between atoms: _260  and  _261
REMARK  111  A    between atoms: _263  and  _265
REMARK  112  A    between atoms: _265  and  _266
REMARK  113  A    between atoms: _268  and  _270
REMARK  114  A    between atoms: _270  and  _271
REMARK  115  A    between atoms: _270  and  _273
REMARK  116  A    between atoms: _273  and  _274
REMARK  117  A    between atoms: _277  and  _279
REMARK  118  A    between atoms: _279  and  _280
REMARK  119  A    between atoms: _279  and  _282
REMARK  120  A    between atoms: _282  and  _283
REMARK  121  A    between atoms: _286  and  _288
REMARK  122  A    between atoms: _288  and  _289
REMARK  123  A    between atoms: _288  and  _291
REMARK  124  A    between atoms: _291  and  _292
REMARK  125  A    between atoms: _292  and  _293
REMARK  126  A    between atoms: _293  and  _294
REMARK  127  A    between atoms: _294  and  _295
REMARK  128  A    between atoms: _299  and  _301
REMARK  129  A    between atoms: _301  and  _302
REMARK  130  A    between atoms: _301  and  _304
REMARK  131  A    between atoms: _304  and  _305
REMARK  132  A    between atoms: _307  and  _309
REMARK  133  A    between atoms: _309  and  _310
REMARK  134  A    between atoms: _309  and  _312
REMARK  135  A    between atoms: _312  and  _313
REMARK  136  A    between atoms: _319  and  _321
REMARK  137  A    between atoms: _321  and  _322
REMARK  138  A    between atoms: _321  and  _324
REMARK  139  A    between atoms: _324  and  _325
REMARK  140  A    between atoms: _328  and  _330
REMARK  141  A    between atoms: _330  and  _331
REMARK  142  A    between atoms: _330  and  _333
REMARK  143  A    between atoms: _333  and  _334
REMARK  144  A    between atoms: _334  and  _335
REMARK  145  A    between atoms: _338  and  _340
REMARK  146  A    between atoms: _340  and  _341
REMARK  147  A    between atoms: _340  and  _343
REMARK  148  A    between atoms: _343  and  _344
REMARK  149  A    between atoms: _349  and  _351
REMARK  150  A    between atoms: _351  and  _352
REMARK  151  A    between atoms: _355  and  _357
REMARK  152  A    between atoms: _357  and  _358
REMARK  153  A    between atoms: _361  and  _363
REMARK  154  A    between atoms: _363  and  _364
REMARK  155  A    between atoms: _363  and  _366
REMARK  156  A    between atoms: _366  and  _367
REMARK  157  A    between atoms: _367  and  _368
REMARK  158  A    between atoms: _368  and  _369
REMARK  159  A    between atoms: _378  and  _380
REMARK  160  A    between atoms: _380  and  _381
REMARK  161  A    between atoms: _380  and  _383
REMARK  162  A    between atoms: _383  and  _384
REMARK  163  A    between atoms: _389  and  _391
REMARK  164  A    between atoms: _391  and  _392
REMARK  165  A    between atoms: _391  and  _394
REMARK  166  A    between atoms: _396  and  _398
REMARK  167  A    between atoms: _398  and  _399
REMARK  168  A    between atoms: _398  and  _401
REMARK  169  A    between atoms: _401  and  _402
REMARK  170  A    between atoms: _405  and  _407
REMARK  171  A    between atoms: _407  and  _408
REMARK  172  A    between atoms: _407  and  _410
REMARK  173  A    between atoms: _410  and  _411
REMARK  174  A    between atoms: _414  and  _416
REMARK  175  A    between atoms: _416  and  _417
REMARK  176  A    between atoms: _416  and  _419
REMARK  177  A    between atoms: _419  and  _420
REMARK  178  A    between atoms: _423  and  _425
REMARK  179  A    between atoms: _425  and  _426
REMARK  180  A    between atoms: _425  and  _428
REMARK  181  A    between atoms: _428  and  _429
REMARK  182  A    between atoms: _429  and  _430
REMARK  183  A    between atoms: _430  and  _431
REMARK  184  A    between atoms: _431  and  _432
REMARK  185  A    between atoms: _436  and  _438
REMARK  186  A    between atoms: _438  and  _439
REMARK  187  A    between atoms: _438  and  _441
REMARK  188  A    between atoms: _441  and  _442
REMARK  189  A    between atoms: _445  and  _447
REMARK  190  A    between atoms: _447  and  _448
REMARK  191  A    between atoms: _450  and  _452
REMARK  192  A    between atoms: _452  and  _453
REMARK  193  A    between atoms: _452  and  _455
REMARK  194  A    between atoms: _455  and  _456
REMARK  195  A    between atoms: _459  and  _461
REMARK  196  A    between atoms: _461  and  _462
REMARK  197  A    between atoms: _461  and  _464
REMARK  198  A    between atoms: _464  and  _465
REMARK  199  A    between atoms: _471  and  _473
REMARK  200  A    between atoms: _473  and  _474
REMARK                            x       y       z     vdW  Elec       q    Type
REMARK                         _______ _______ _______ _____ _____    ______ ____
ROOT
ATOM      1  O   HOH     1     -41.690 -14.743  65.623  0.00  0.00    +0.000 OA
ENDROOT
TORSDOF 0
REMARK  Name = ../refined-set-2016/4cd0/4cd0_pocket.pdb
REMARK  200 active torsions:
REMARK  status: ('A' for Active; 'I' for Inactive)
REMARK    1  A    between atoms: _1  and  _3
REMARK    2  A    between atoms: _3  and  _4
REMARK    3  A    between atoms: _3  and  _6
REMARK    4  A    between atoms: _6  and  _7
REMARK    5  A    between atoms: _7  and  _8
REMARK    6  A    between atoms: _8  and  _9
REMARK    7  A    between atoms: _18  and  _20
REMARK    8  A    between atoms: _20  and  _21
REMARK    9  A    between atoms: _23  and  _25
REMARK   10  A    between atoms: _25  and  _26
REMARK   11  A    between atoms: _25  and  _28
REMARK   12  A    between atoms: _28  and  _29
REMARK   13  A    between atoms: _32  and  _34
REMARK   14  A    between atoms: _34  and  _35
REMARK   15  A    between atoms: _37  and  _39
REMARK   16  A    between atoms: _39  and  _40
REMARK   17  A    between atoms: _39  and  _42
REMARK   18  A    between atoms: _42  and  _43
REMARK   19  A    between atoms: _48  and  _50
REMARK   20  A    between atoms: _50  and  _51
REMARK   21  A    between atoms: _53  and  _55
REMARK   22  A    between atoms: _55  and  _56
REMARK   23  A    between atoms: _59  and  _61
REMARK   24  A    between atoms: _61  and  _62
REMARK   25  A    between atoms: _61  and  _64
REMARK   26  A    between atoms: _64  and  _65
REMARK   27  A    between atoms: _71  and  _73
REMARK   28  A    between atoms: _73  and  _74
REMARK   29  A    between atoms: _76  and  _78
REMARK   30  A    between atoms: _78  and  _79
REMARK   31  A    between atoms: _78  and  _81
REMARK   32  A    between atoms: _81  and  _82
REMARK   33  A    between atoms: _82  and  _83
REMARK   34  A    between atoms: _86  and  _88
REMARK   35  A    between atoms: _88  and  _89
REMARK   36  A    between atoms: _88  and  _91
REMARK   37  A    between atoms: _94  and  _96
REMARK   38  A    between atoms: _96  and  _97
REMARK   39  A    between atoms: _96  and  _99
REMARK   40  A    between atoms: _99  and  _100
REMARK   41  A    between atoms: _105  and  _106
REMARK   42  A    between atoms: _108  and  _110
REMARK   43  A    between atoms: _110  and  _111
REMARK   44  A    between atoms: _110  and  _113
REMARK   45  A    between atoms: _113  and  _114
REMARK   46  A    between atoms: _114  and  _115
REMARK   47  A    between atoms: _118  and  _120
REMARK   48  A    between atoms: _120  and  _121
REMARK   49  A    between atoms: _120  and  _123
REMARK   50  A    between atoms: _126  and  _128
REMARK   51  A    between atoms: _128  and  _129
REMARK   52  A    between atoms: _132  and  _134
REMARK   53  A    between atoms: _134  and  _135
REMARK   54  A    between atoms: _134  and  _137
REMARK   55  A    between atoms: _140  and  _142
REMARK   56  A    between atoms: _142  and  _143
REMARK   57  A    between atoms: _142  and  _145
REMARK   58  A    between atoms: _145  and  _146
REMARK   59  A    between atoms: _146  and  _147
REMARK   60  A    between atoms: _147  and  _148
REMARK   61  A    between atoms: _148  and  _149
REMARK   62  A    between atoms: _153  and  _155
REMARK   63  A    between atoms: _155  and  _156
REMARK   64  A    between atoms: _155  and  _158
REMARK   65  A    between atoms: _158  and  _159
REMARK   66  A    between atoms: _162  and  _164
REMARK   67  A    between atoms: _164  and  _165
REMARK   68  A    between atoms: _164  and  _167
REMARK   69  A    between atoms: _167  and  _168
REMARK   70  A    between atoms: _168  and  _169
REMARK   71  A    between atoms: _172  and  _174
REMARK   72  A    between atoms: _174  and  _175
REMARK   73  A    between atoms: _174  and  _177
REMARK   74  A    between atoms: _180  and  _182
REMARK   75  A    between atoms: _182  and  _183
REMARK   76  A    between atoms: _182  and  _185
REMARK   77  A    between atoms: _185  and  _186
REMARK   78  A    between atoms: _186  and  _187
REMARK   79  A    between atoms: _187  and  _188
REMARK   80  A    between atoms: _197  and  _199
REMARK   81  A    between atoms: _199  and  _200
REMARK   82  A    between atoms: _199  and  _202
REMARK   83  A    between atoms: _202  and  _203
REMARK   84  A    between atoms: _206  and  _208
REMARK   85  A    between atoms: _208  and  _209
REMARK   86  A    between atoms: _208  and  _211
REMARK   87  A    between atoms: _211  and  _212
REMARK   88  A    between atoms: _215  and  _217
REMARK   89  A    between atoms: _217  and  _218
REMARK   90  A    between atoms: _217  and  _220
REMARK   91  A    between atoms: _220  and  _221
REMARK   92  A    between atoms: _221  and  _222
REMARK   93  A    between atoms: _224  and  _226
REMARK   94  A    between atoms: _226  and  _227
REMARK   95  A    between atoms: _226  and  _229
REMARK   96  A    between atoms: _229  and  _230
REMARK   97  A    between atoms: _230  and  _231
REMARK   98  A    between atoms: _234  and  _236
REMARK   99  A    between atoms: _236  and  _237
REMARK  100  A    between atoms: _236  and  _239
REMARK  101  A    between atoms: _239  and  _240
REMARK  102  A    between atoms: _243  and  _245
REMARK  103  A    between atoms: _245  and  _246
REMARK  104  A    between atoms: _245  and  _248
REMARK  105  A    between atoms: _248  and  _249
REMARK  106  A    between atoms: _249  and  _250
REMARK  107  A    between atoms: _252  and  _254
REMARK  108  A    between atoms: _254  and  _255
REMARK  109  A    between atoms: _258  and  _260
REMARK  110  A    between atoms: _260  and  _261
REMARK  111  A    between atoms: _263  and  _265
REMARK  112  A    between atoms: _265  and  _266
REMARK  113  A    between atoms: _268  and  _270
REMARK  114  A    between atoms: _270  and  _271
REMARK  115  A    between atoms: _270  and  _273
REMARK  116  A    between atoms: _273  and  _274
REMARK  117  A    between atoms: _277  and  _279
REMARK  118  A    between atoms: _279  and  _280
REMARK  119  A    between atoms: _279  and  _282
REMARK  120  A    between atoms: _282  and  _283
REMARK  121  A    between atoms: _286  and  _288
REMARK  122  A    between atoms: _288  and  _289
REMARK  123  A    between atoms: _288  and  _291
REMARK  124  A    between atoms: _291  and  _292
REMARK  125  A    between atoms: _292  and  _293
REMARK  126  A    between atoms: _293  and  _294
REMARK  127  A    between atoms: _294  and  _295
REMARK  128  A    between atoms: _299  and  _301
REMARK  129  A    between atoms: _301  and  _302
REMARK  130  A    between atoms: _301  and  _304
REMARK  131  A    between atoms: _304  and  _305
REMARK  132  A    between atoms: _307  and  _309
REMARK  133  A    between atoms: _309  and  _310
REMARK  134  A    between atoms: _309  and  _312
REMARK  135  A    between atoms: _312  and  _313
REMARK  136  A    between atoms: _319  and  _321
REMARK  137  A    between atoms: _321  and  _322
REMARK  138  A    between atoms: _321  and  _324
REMARK  139  A    between atoms: _324  and  _325
REMARK  140  A    between atoms: _328  and  _330
REMARK  141  A    between atoms: _330  and  _331
REMARK  142  A    between atoms: _330  and  _333
REMARK  143  A    between atoms: _333  and  _334
REMARK  144  A    between atoms: _334  and  _335
REMARK  145  A    between atoms: _338  and  _340
REMARK  146  A    between atoms: _340  and  _341
REMARK  147  A    between atoms: _340  and  _343
REMARK  148  A    between atoms: _343  and  _344
REMARK  149  A    between atoms: _349  and  _351
REMARK  150  A    between atoms: _351  and  _352
REMARK  151  A    between atoms: _355  and  _357
REMARK  152  A    between atoms: _357  and  _358
REMARK  153  A    between atoms: _361  and  _363
REMARK  154  A    between atoms: _363  and  _364
REMARK  155  A    between atoms: _363  and  _366
REMARK  156  A    between atoms: _366  and  _367
REMARK  157  A    between atoms: _367  and  _368
REMARK  158  A    between atoms: _368  and  _369
REMARK  159  A    between atoms: _378  and  _380
REMARK  160  A    between atoms: _380  and  _381
REMARK  161  A    between atoms: _380  and  _383
REMARK  162  A    between atoms: _383  and  _384
REMARK  163  A    between atoms: _389  and  _391
REMARK  164  A    between atoms: _391  and  _392
REMARK  165  A    between atoms: _391  and  _394
REMARK  166  A    between atoms: _396  and  _398
REMARK  167  A    between atoms: _398  and  _399
REMARK  168  A    between atoms: _398  and  _401
REMARK  169  A    between atoms: _401  and  _402
REMARK  170  A    between atoms: _405  and  _407
REMARK  171  A    between atoms: _407  and  _408
REMARK  172  A    between atoms: _407  and  _410
REMARK  173  A    between atoms: _410  and  _411
REMARK  174  A    between atoms: _414  and  _416
REMARK  175  A    between atoms: _416  and  _417
REMARK  176  A    between atoms: _416  and  _419
REMARK  177  A    between atoms: _419  and  _420
REMARK  178  A    between atoms: _423  and  _425
REMARK  179  A    between atoms: _425  and  _426
REMARK  180  A    between atoms: _425  and  _428
REMARK  181  A    between atoms: _428  and  _429
REMARK  182  A    between atoms: _429  and  _430
REMARK  183  A    between atoms: _430  and  _431
REMARK  184  A    between atoms: _431  and  _432
REMARK  185  A    between atoms: _436  and  _438
REMARK  186  A    between atoms: _438  and  _439
REMARK  187  A    between atoms: _438  and  _441
REMARK  188  A    between atoms: _441  and  _442
REMARK  189  A    between atoms: _445  and  _447
REMARK  190  A    between atoms: _447  and  _448
REMARK  191  A    between atoms: _450  and  _452
REMARK  192  A    between atoms: _452  and  _453
REMARK  193  A    between atoms: _452  and  _455
REMARK  194  A    between atoms: _455  and  _456
REMARK  195  A    between atoms: _459  and  _461
REMARK  196  A    between atoms: _461  and  _462
REMARK  197  A    between atoms: _461  and  _464
REMARK  198  A    between atoms: _464  and  _465
REMARK  199  A    between atoms: _471  and  _473
REMARK  200  A    between atoms: _473  and  _474
REMARK                            x       y       z     vdW  Elec       q    Type
REMARK                         _______ _______ _______ _____ _____    ______ ____
ROOT
ATOM      1  O   HOH     1     -38.332 -19.350  60.398  0.00  0.00    +0.000 OA
ENDROOT
TORSDOF 0
REMARK  Name = ../refined-set-2016/4cd0/4cd0_pocket.pdb
REMARK  200 active torsions:
REMARK  status: ('A' for Active; 'I' for Inactive)
REMARK    1  A    between atoms: _1  and  _3
REMARK    2  A    between atoms: _3  and  _4
REMARK    3  A    between atoms: _3  and  _6
REMARK    4  A    between atoms: _6  and  _7
REMARK    5  A    between atoms: _7  and  _8
REMARK    6  A    between atoms: _8  and  _9
REMARK    7  A    between atoms: _18  and  _20
REMARK    8  A    between atoms: _20  and  _21
REMARK    9  A    between atoms: _23  and  _25
REMARK   10  A    between atoms: _25  and  _26
REMARK   11  A    between atoms: _25  and  _28
REMARK   12  A    between atoms: _28  and  _29
REMARK   13  A    between atoms: _32  and  _34
REMARK   14  A    between atoms: _34  and  _35
REMARK   15  A    between atoms: _37  and  _39
REMARK   16  A    between atoms: _39  and  _40
REMARK   17  A    between atoms: _39  and  _42
REMARK   18  A    between atoms: _42  and  _43
REMARK   19  A    between atoms: _48  and  _50
REMARK   20  A    between atoms: _50  and  _51
REMARK   21  A    between atoms: _53  and  _55
REMARK   22  A    between atoms: _55  and  _56
REMARK   23  A    between atoms: _59  and  _61
REMARK   24  A    between atoms: _61  and  _62
REMARK   25  A    between atoms: _61  and  _64
REMARK   26  A    between atoms: _64  and  _65
REMARK   27  A    between atoms: _71  and  _73
REMARK   28  A    between atoms: _73  and  _74
REMARK   29  A    between atoms: _76  and  _78
REMARK   30  A    between atoms: _78  and  _79
REMARK   31  A    between atoms: _78  and  _81
REMARK   32  A    between atoms: _81  and  _82
REMARK   33  A    between atoms: _82  and  _83
REMARK   34  A    between atoms: _86  and  _88
REMARK   35  A    between atoms: _88  and  _89
REMARK   36  A    between atoms: _88  and  _91
REMARK   37  A    between atoms: _94  and  _96
REMARK   38  A    between atoms: _96  and  _97
REMARK   39  A    between atoms: _96  and  _99
REMARK   40  A    between atoms: _99  and  _100
REMARK   41  A    between atoms: _105  and  _106
REMARK   42  A    between atoms: _108  and  _110
REMARK   43  A    between atoms: _110  and  _111
REMARK   44  A    between atoms: _110  and  _113
REMARK   45  A    between atoms: _113  and  _114
REMARK   46  A    between atoms: _114  and  _115
REMARK   47  A    between atoms: _118  and  _120
REMARK   48  A    between atoms: _120  and  _121
REMARK   49  A    between atoms: _120  and  _123
REMARK   50  A    between atoms: _126  and  _128
REMARK   51  A    between atoms: _128  and  _129
REMARK   52  A    between atoms: _132  and  _134
REMARK   53  A    between atoms: _134  and  _135
REMARK   54  A    between atoms: _134  and  _137
REMARK   55  A    between atoms: _140  and  _142
REMARK   56  A    between atoms: _142  and  _143
REMARK   57  A    between atoms: _142  and  _145
REMARK   58  A    between atoms: _145  and  _146
REMARK   59  A    between atoms: _146  and  _147
REMARK   60  A    between atoms: _147  and  _148
REMARK   61  A    between atoms: _148  and  _149
REMARK   62  A    between atoms: _153  and  _155
REMARK   63  A    between atoms: _155  and  _156
REMARK   64  A    between atoms: _155  and  _158
REMARK   65  A    between atoms: _158  and  _159
REMARK   66  A    between atoms: _162  and  _164
REMARK   67  A    between atoms: _164  and  _165
REMARK   68  A    between atoms: _164  and  _167
REMARK   69  A    between atoms: _167  and  _168
REMARK   70  A    between atoms: _168  and  _169
REMARK   71  A    between atoms: _172  and  _174
REMARK   72  A    between atoms: _174  and  _175
REMARK   73  A    between atoms: _174  and  _177
REMARK   74  A    between atoms: _180  and  _182
REMARK   75  A    between atoms: _182  and  _183
REMARK   76  A    between atoms: _182  and  _185
REMARK   77  A    between atoms: _185  and  _186
REMARK   78  A    between atoms: _186  and  _187
REMARK   79  A    between atoms: _187  and  _188
REMARK   80  A    between atoms: _197  and  _199
REMARK   81  A    between atoms: _199  and  _200
REMARK   82  A    between atoms: _199  and  _202
REMARK   83  A    between atoms: _202  and  _203
REMARK   84  A    between atoms: _206  and  _208
REMARK   85  A    between atoms: _208  and  _209
REMARK   86  A    between atoms: _208  and  _211
REMARK   87  A    between atoms: _211  and  _212
REMARK   88  A    between atoms: _215  and  _217
REMARK   89  A    between atoms: _217  and  _218
REMARK   90  A    between atoms: _217  and  _220
REMARK   91  A    between atoms: _220  and  _221
REMARK   92  A    between atoms: _221  and  _222
REMARK   93  A    between atoms: _224  and  _226
REMARK   94  A    between atoms: _226  and  _227
REMARK   95  A    between atoms: _226  and  _229
REMARK   96  A    between atoms: _229  and  _230
REMARK   97  A    between atoms: _230  and  _231
REMARK   98  A    between atoms: _234  and  _236
REMARK   99  A    between atoms: _236  and  _237
REMARK  100  A    between atoms: _236  and  _239
REMARK  101  A    between atoms: _239  and  _240
REMARK  102  A    between atoms: _243  and  _245
REMARK  103  A    between atoms: _245  and  _246
REMARK  104  A    between atoms: _245  and  _248
REMARK  105  A    between atoms: _248  and  _249
REMARK  106  A    between atoms: _249  and  _250
REMARK  107  A    between atoms: _252  and  _254
REMARK  108  A    between atoms: _254  and  _255
REMARK  109  A    between atoms: _258  and  _260
REMARK  110  A    between atoms: _260  and  _261
REMARK  111  A    between atoms: _263  and  _265
REMARK  112  A    between atoms: _265  and  _266
REMARK  113  A    between atoms: _268  and  _270
REMARK  114  A    between atoms: _270  and  _271
REMARK  115  A    between atoms: _270  and  _273
REMARK  116  A    between atoms: _273  and  _274
REMARK  117  A    between atoms: _277  and  _279
REMARK  118  A    between atoms: _279  and  _280
REMARK  119  A    between atoms: _279  and  _282
REMARK  120  A    between atoms: _282  and  _283
REMARK  121  A    between atoms: _286  and  _288
REMARK  122  A    between atoms: _288  and  _289
REMARK  123  A    between atoms: _288  and  _291
REMARK  124  A    between atoms: _291  and  _292
REMARK  125  A    between atoms: _292  and  _293
REMARK  126  A    between atoms: _293  and  _294
REMARK  127  A    between atoms: _294  and  _295
REMARK  128  A    between atoms: _299  and  _301
REMARK  129  A    between atoms: _301  and  _302
REMARK  130  A    between atoms: _301  and  _304
REMARK  131  A    between atoms: _304  and  _305
REMARK  132  A    between atoms: _307  and  _309
REMARK  133  A    between atoms: _309  and  _310
REMARK  134  A    between atoms: _309  and  _312
REMARK  135  A    between atoms: _312  and  _313
REMARK  136  A    between atoms: _319  and  _321
REMARK  137  A    between atoms: _321  and  _322
REMARK  138  A    between atoms: _321  and  _324
REMARK  139  A    between atoms: _324  and  _325
REMARK  140  A    between atoms: _328  and  _330
REMARK  141  A    between atoms: _330  and  _331
REMARK  142  A    between atoms: _330  and  _333
REMARK  143  A    between atoms: _333  and  _334
REMARK  144  A    between atoms: _334  and  _335
REMARK  145  A    between atoms: _338  and  _340
REMARK  146  A    between atoms: _340  and  _341
REMARK  147  A    between atoms: _340  and  _343
REMARK  148  A    between atoms: _343  and  _344
REMARK  149  A    between atoms: _349  and  _351
REMARK  150  A    between atoms: _351  and  _352
REMARK  151  A    between atoms: _355  and  _357
REMARK  152  A    between atoms: _357  and  _358
REMARK  153  A    between atoms: _361  and  _363
REMARK  154  A    between atoms: _363  and  _364
REMARK  155  A    between atoms: _363  and  _366
REMARK  156  A    between atoms: _366  and  _367
REMARK  157  A    between atoms: _367  and  _368
REMARK  158  A    between atoms: _368  and  _369
REMARK  159  A    between atoms: _378  and  _380
REMARK  160  A    between atoms: _380  and  _381
REMARK  161  A    between atoms: _380  and  _383
REMARK  162  A    between atoms: _383  and  _384
REMARK  163  A    between atoms: _389  and  _391
REMARK  164  A    between atoms: _391  and  _392
REMARK  165  A    between atoms: _391  and  _394
REMARK  166  A    between atoms: _396  and  _398
REMARK  167  A    between atoms: _398  and  _399
REMARK  168  A    between atoms: _398  and  _401
REMARK  169  A    between atoms: _401  and  _402
REMARK  170  A    between atoms: _405  and  _407
REMARK  171  A    between atoms: _407  and  _408
REMARK  172  A    between atoms: _407  and  _410
REMARK  173  A    between atoms: _410  and  _411
REMARK  174  A    between atoms: _414  and  _416
REMARK  175  A    between atoms: _416  and  _417
REMARK  176  A    between atoms: _416  and  _419
REMARK  177  A    between atoms: _419  and  _420
REMARK  178  A    between atoms: _423  and  _425
REMARK  179  A    between atoms: _425  and  _426
REMARK  180  A    between atoms: _425  and  _428
REMARK  181  A    between atoms: _428  and  _429
REMARK  182  A    between atoms: _429  and  _430
REMARK  183  A    between atoms: _430  and  _431
REMARK  184  A    between atoms: _431  and  _432
REMARK  185  A    between atoms: _436  and  _438
REMARK  186  A    between atoms: _438  and  _439
REMARK  187  A    between atoms: _438  and  _441
REMARK  188  A    between atoms: _441  and  _442
REMARK  189  A    between atoms: _445  and  _447
REMARK  190  A    between atoms: _447  and  _448
REMARK  191  A    between atoms: _450  and  _452
REMARK  192  A    between atoms: _452  and  _453
REMARK  193  A    between atoms: _452  and  _455
REMARK  194  A    between atoms: _455  and  _456
REMARK  195  A    between atoms: _459  and  _461
REMARK  196  A    between atoms: _461  and  _462
REMARK  197  A    between atoms: _461  and  _464
REMARK  198  A    between atoms: _464  and  _465
REMARK  199  A    between atoms: _471  and  _473
REMARK  200  A    between atoms: _473  and  _474
REMARK                            x       y       z     vdW  Elec       q    Type
REMARK                         _______ _______ _______ _____ _____    ______ ____
ROOT
ATOM      1  O   HOH     1     -36.428 -21.925  60.892  0.00  0.00    +0.000 OA
ENDROOT
TORSDOF 0
REMARK  Name = ../refined-set-2016/4cd0/4cd0_pocket.pdb
REMARK  200 active torsions:
REMARK  status: ('A' for Active; 'I' for Inactive)
REMARK    1  A    between atoms: _1  and  _3
REMARK    2  A    between atoms: _3  and  _4
REMARK    3  A    between atoms: _3  and  _6
REMARK    4  A    between atoms: _6  and  _7
REMARK    5  A    between atoms: _7  and  _8
REMARK    6  A    between atoms: _8  and  _9
REMARK    7  A    between atoms: _18  and  _20
REMARK    8  A    between atoms: _20  and  _21
REMARK    9  A    between atoms: _23  and  _25
REMARK   10  A    between atoms: _25  and  _26
REMARK   11  A    between atoms: _25  and  _28
REMARK   12  A    between atoms: _28  and  _29
REMARK   13  A    between atoms: _32  and  _34
REMARK   14  A    between atoms: _34  and  _35
REMARK   15  A    between atoms: _37  and  _39
REMARK   16  A    between atoms: _39  and  _40
REMARK   17  A    between atoms: _39  and  _42
REMARK   18  A    between atoms: _42  and  _43
REMARK   19  A    between atoms: _48  and  _50
REMARK   20  A    between atoms: _50  and  _51
REMARK   21  A    between atoms: _53  and  _55
REMARK   22  A    between atoms: _55  and  _56
REMARK   23  A    between atoms: _59  and  _61
REMARK   24  A    between atoms: _61  and  _62
REMARK   25  A    between atoms: _61  and  _64
REMARK   26  A    between atoms: _64  and  _65
REMARK   27  A    between atoms: _71  and  _73
REMARK   28  A    between atoms: _73  and  _74
REMARK   29  A    between atoms: _76  and  _78
REMARK   30  A    between atoms: _78  and  _79
REMARK   31  A    between atoms: _78  and  _81
REMARK   32  A    between atoms: _81  and  _82
REMARK   33  A    between atoms: _82  and  _83
REMARK   34  A    between atoms: _86  and  _88
REMARK   35  A    between atoms: _88  and  _89
REMARK   36  A    between atoms: _88  and  _91
REMARK   37  A    between atoms: _94  and  _96
REMARK   38  A    between atoms: _96  and  _97
REMARK   39  A    between atoms: _96  and  _99
REMARK   40  A    between atoms: _99  and  _100
REMARK   41  A    between atoms: _105  and  _106
REMARK   42  A    between atoms: _108  and  _110
REMARK   43  A    between atoms: _110  and  _111
REMARK   44  A    between atoms: _110  and  _113
REMARK   45  A    between atoms: _113  and  _114
REMARK   46  A    between atoms: _114  and  _115
REMARK   47  A    between atoms: _118  and  _120
REMARK   48  A    between atoms: _120  and  _121
REMARK   49  A    between atoms: _120  and  _123
REMARK   50  A    between atoms: _126  and  _128
REMARK   51  A    between atoms: _128  and  _129
REMARK   52  A    between atoms: _132  and  _134
REMARK   53  A    between atoms: _134  and  _135
REMARK   54  A    between atoms: _134  and  _137
REMARK   55  A    between atoms: _140  and  _142
REMARK   56  A    between atoms: _142  and  _143
REMARK   57  A    between atoms: _142  and  _145
REMARK   58  A    between atoms: _145  and  _146
REMARK   59  A    between atoms: _146  and  _147
REMARK   60  A    between atoms: _147  and  _148
REMARK   61  A    between atoms: _148  and  _149
REMARK   62  A    between atoms: _153  and  _155
REMARK   63  A    between atoms: _155  and  _156
REMARK   64  A    between atoms: _155  and  _158
REMARK   65  A    between atoms: _158  and  _159
REMARK   66  A    between atoms: _162  and  _164
REMARK   67  A    between atoms: _164  and  _165
REMARK   68  A    between atoms: _164  and  _167
REMARK   69  A    between atoms: _167  and  _168
REMARK   70  A    between atoms: _168  and  _169
REMARK   71  A    between atoms: _172  and  _174
REMARK   72  A    between atoms: _174  and  _175
REMARK   73  A    between atoms: _174  and  _177
REMARK   74  A    between atoms: _180  and  _182
REMARK   75  A    between atoms: _182  and  _183
REMARK   76  A    between atoms: _182  and  _185
REMARK   77  A    between atoms: _185  and  _186
REMARK   78  A    between atoms: _186  and  _187
REMARK   79  A    between atoms: _187  and  _188
REMARK   80  A    between atoms: _197  and  _199
REMARK   81  A    between atoms: _199  and  _200
REMARK   82  A    between atoms: _199  and  _202
REMARK   83  A    between atoms: _202  and  _203
REMARK   84  A    between atoms: _206  and  _208
REMARK   85  A    between atoms: _208  and  _209
REMARK   86  A    between atoms: _208  and  _211
REMARK   87  A    between atoms: _211  and  _212
REMARK   88  A    between atoms: _215  and  _217
REMARK   89  A    between atoms: _217  and  _218
REMARK   90  A    between atoms: _217  and  _220
REMARK   91  A    between atoms: _220  and  _221
REMARK   92  A    between atoms: _221  and  _222
REMARK   93  A    between atoms: _224  and  _226
REMARK   94  A    between atoms: _226  and  _227
REMARK   95  A    between atoms: _226  and  _229
REMARK   96  A    between atoms: _229  and  _230
REMARK   97  A    between atoms: _230  and  _231
REMARK   98  A    between atoms: _234  and  _236
REMARK   99  A    between atoms: _236  and  _237
REMARK  100  A    between atoms: _236  and  _239
REMARK  101  A    between atoms: _239  and  _240
REMARK  102  A    between atoms: _243  and  _245
REMARK  103  A    between atoms: _245  and  _246
REMARK  104  A    between atoms: _245  and  _248
REMARK  105  A    between atoms: _248  and  _249
REMARK  106  A    between atoms: _249  and  _250
REMARK  107  A    between atoms: _252  and  _254
REMARK  108  A    between atoms: _254  and  _255
REMARK  109  A    between atoms: _258  and  _260
REMARK  110  A    between atoms: _260  and  _261
REMARK  111  A    between atoms: _263  and  _265
REMARK  112  A    between atoms: _265  and  _266
REMARK  113  A    between atoms: _268  and  _270
REMARK  114  A    between atoms: _270  and  _271
REMARK  115  A    between atoms: _270  and  _273
REMARK  116  A    between atoms: _273  and  _274
REMARK  117  A    between atoms: _277  and  _279
REMARK  118  A    between atoms: _279  and  _280
REMARK  119  A    between atoms: _279  and  _282
REMARK  120  A    between atoms: _282  and  _283
REMARK  121  A    between atoms: _286  and  _288
REMARK  122  A    between atoms: _288  and  _289
REMARK  123  A    between atoms: _288  and  _291
REMARK  124  A    between atoms: _291  and  _292
REMARK  125  A    between atoms: _292  and  _293
REMARK  126  A    between atoms: _293  and  _294
REMARK  127  A    between atoms: _294  and  _295
REMARK  128  A    between atoms: _299  and  _301
REMARK  129  A    between atoms: _301  and  _302
REMARK  130  A    between atoms: _301  and  _304
REMARK  131  A    between atoms: _304  and  _305
REMARK  132  A    between atoms: _307  and  _309
REMARK  133  A    between atoms: _309  and  _310
REMARK  134  A    between atoms: _309  and  _312
REMARK  135  A    between atoms: _312  and  _313
REMARK  136  A    between atoms: _319  and  _321
REMARK  137  A    between atoms: _321  and  _322
REMARK  138  A    between atoms: _321  and  _324
REMARK  139  A    between atoms: _324  and  _325
REMARK  140  A    between atoms: _328  and  _330
REMARK  141  A    between atoms: _330  and  _331
REMARK  142  A    between atoms: _330  and  _333
REMARK  143  A    between atoms: _333  and  _334
REMARK  144  A    between atoms: _334  and  _335
REMARK  145  A    between atoms: _338  and  _340
REMARK  146  A    between atoms: _340  and  _341
REMARK  147  A    between atoms: _340  and  _343
REMARK  148  A    between atoms: _343  and  _344
REMARK  149  A    between atoms: _349  and  _351
REMARK  150  A    between atoms: _351  and  _352
REMARK  151  A    between atoms: _355  and  _357
REMARK  152  A    between atoms: _357  and  _358
REMARK  153  A    between atoms: _361  and  _363
REMARK  154  A    between atoms: _363  and  _364
REMARK  155  A    between atoms: _363  and  _366
REMARK  156  A    between atoms: _366  and  _367
REMARK  157  A    between atoms: _367  and  _368
REMARK  158  A    between atoms: _368  and  _369
REMARK  159  A    between atoms: _378  and  _380
REMARK  160  A    between atoms: _380  and  _381
REMARK  161  A    between atoms: _380  and  _383
REMARK  162  A    between atoms: _383  and  _384
REMARK  163  A    between atoms: _389  and  _391
REMARK  164  A    between atoms: _391  and  _392
REMARK  165  A    between atoms: _391  and  _394
REMARK  166  A    between atoms: _396  and  _398
REMARK  167  A    between atoms: _398  and  _399
REMARK  168  A    between atoms: _398  and  _401
REMARK  169  A    between atoms: _401  and  _402
REMARK  170  A    between atoms: _405  and  _407
REMARK  171  A    between atoms: _407  and  _408
REMARK  172  A    between atoms: _407  and  _410
REMARK  173  A    between atoms: _410  and  _411
REMARK  174  A    between atoms: _414  and  _416
REMARK  175  A    between atoms: _416  and  _417
REMARK  176  A    between atoms: _416  and  _419
REMARK  177  A    between atoms: _419  and  _420
REMARK  178  A    between atoms: _423  and  _425
REMARK  179  A    between atoms: _425  and  _426
REMARK  180  A    between atoms: _425  and  _428
REMARK  181  A    between atoms: _428  and  _429
REMARK  182  A    between atoms: _429  and  _430
REMARK  183  A    between atoms: _430  and  _431
REMARK  184  A    between atoms: _431  and  _432
REMARK  185  A    between atoms: _436  and  _438
REMARK  186  A    between atoms: _438  and  _439
REMARK  187  A    between atoms: _438  and  _441
REMARK  188  A    between atoms: _441  and  _442
REMARK  189  A    between atoms: _445  and  _447
REMARK  190  A    between atoms: _447  and  _448
REMARK  191  A    between atoms: _450  and  _452
REMARK  192  A    between atoms: _452  and  _453
REMARK  193  A    between atoms: _452  and  _455
REMARK  194  A    between atoms: _455  and  _456
REMARK  195  A    between atoms: _459  and  _461
REMARK  196  A    between atoms: _461  and  _462
REMARK  197  A    between atoms: _461  and  _464
REMARK  198  A    between atoms: _464  and  _465
REMARK  199  A    between atoms: _471  and  _473
REMARK  200  A    between atoms: _473  and  _474
REMARK                            x       y       z     vdW  Elec       q    Type
REMARK                         _______ _______ _______ _____ _____    ______ ____
ROOT
ATOM      1  O   HOH     1     -40.882 -17.922  61.696  0.00  0.00    +0.000 OA
ENDROOT
TORSDOF 0
REMARK  Name = ../refined-set-2016/4cd0/4cd0_pocket.pdb
REMARK  200 active torsions:
REMARK  status: ('A' for Active; 'I' for Inactive)
REMARK    1  A    between atoms: _1  and  _3
REMARK    2  A    between atoms: _3  and  _4
REMARK    3  A    between atoms: _3  and  _6
REMARK    4  A    between atoms: _6  and  _7
REMARK    5  A    between atoms: _7  and  _8
REMARK    6  A    between atoms: _8  and  _9
REMARK    7  A    between atoms: _18  and  _20
REMARK    8  A    between atoms: _20  and  _21
REMARK    9  A    between atoms: _23  and  _25
REMARK   10  A    between atoms: _25  and  _26
REMARK   11  A    between atoms: _25  and  _28
REMARK   12  A    between atoms: _28  and  _29
REMARK   13  A    between atoms: _32  and  _34
REMARK   14  A    between atoms: _34  and  _35
REMARK   15  A    between atoms: _37  and  _39
REMARK   16  A    between atoms: _39  and  _40
REMARK   17  A    between atoms: _39  and  _42
REMARK   18  A    between atoms: _42  and  _43
REMARK   19  A    between atoms: _48  and  _50
REMARK   20  A    between atoms: _50  and  _51
REMARK   21  A    between atoms: _53  and  _55
REMARK   22  A    between atoms: _55  and  _56
REMARK   23  A    between atoms: _59  and  _61
REMARK   24  A    between atoms: _61  and  _62
REMARK   25  A    between atoms: _61  and  _64
REMARK   26  A    between atoms: _64  and  _65
REMARK   27  A    between atoms: _71  and  _73
REMARK   28  A    between atoms: _73  and  _74
REMARK   29  A    between atoms: _76  and  _78
REMARK   30  A    between atoms: _78  and  _79
REMARK   31  A    between atoms: _78  and  _81
REMARK   32  A    between atoms: _81  and  _82
REMARK   33  A    between atoms: _82  and  _83
REMARK   34  A    between atoms: _86  and  _88
REMARK   35  A    between atoms: _88  and  _89
REMARK   36  A    between atoms: _88  and  _91
REMARK   37  A    between atoms: _94  and  _96
REMARK   38  A    between atoms: _96  and  _97
REMARK   39  A    between atoms: _96  and  _99
REMARK   40  A    between atoms: _99  and  _100
REMARK   41  A    between atoms: _105  and  _106
REMARK   42  A    between atoms: _108  and  _110
REMARK   43  A    between atoms: _110  and  _111
REMARK   44  A    between atoms: _110  and  _113
REMARK   45  A    between atoms: _113  and  _114
REMARK   46  A    between atoms: _114  and  _115
REMARK   47  A    between atoms: _118  and  _120
REMARK   48  A    between atoms: _120  and  _121
REMARK   49  A    between atoms: _120  and  _123
REMARK   50  A    between atoms: _126  and  _128
REMARK   51  A    between atoms: _128  and  _129
REMARK   52  A    between atoms: _132  and  _134
REMARK   53  A    between atoms: _134  and  _135
REMARK   54  A    between atoms: _134  and  _137
REMARK   55  A    between atoms: _140  and  _142
REMARK   56  A    between atoms: _142  and  _143
REMARK   57  A    between atoms: _142  and  _145
REMARK   58  A    between atoms: _145  and  _146
REMARK   59  A    between atoms: _146  and  _147
REMARK   60  A    between atoms: _147  and  _148
REMARK   61  A    between atoms: _148  and  _149
REMARK   62  A    between atoms: _153  and  _155
REMARK   63  A    between atoms: _155  and  _156
REMARK   64  A    between atoms: _155  and  _158
REMARK   65  A    between atoms: _158  and  _159
REMARK   66  A    between atoms: _162  and  _164
REMARK   67  A    between atoms: _164  and  _165
REMARK   68  A    between atoms: _164  and  _167
REMARK   69  A    between atoms: _167  and  _168
REMARK   70  A    between atoms: _168  and  _169
REMARK   71  A    between atoms: _172  and  _174
REMARK   72  A    between atoms: _174  and  _175
REMARK   73  A    between atoms: _174  and  _177
REMARK   74  A    between atoms: _180  and  _182
REMARK   75  A    between atoms: _182  and  _183
REMARK   76  A    between atoms: _182  and  _185
REMARK   77  A    between atoms: _185  and  _186
REMARK   78  A    between atoms: _186  and  _187
REMARK   79  A    between atoms: _187  and  _188
REMARK   80  A    between atoms: _197  and  _199
REMARK   81  A    between atoms: _199  and  _200
REMARK   82  A    between atoms: _199  and  _202
REMARK   83  A    between atoms: _202  and  _203
REMARK   84  A    between atoms: _206  and  _208
REMARK   85  A    between atoms: _208  and  _209
REMARK   86  A    between atoms: _208  and  _211
REMARK   87  A    between atoms: _211  and  _212
REMARK   88  A    between atoms: _215  and  _217
REMARK   89  A    between atoms: _217  and  _218
REMARK   90  A    between atoms: _217  and  _220
REMARK   91  A    between atoms: _220  and  _221
REMARK   92  A    between atoms: _221  and  _222
REMARK   93  A    between atoms: _224  and  _226
REMARK   94  A    between atoms: _226  and  _227
REMARK   95  A    between atoms: _226  and  _229
REMARK   96  A    between atoms: _229  and  _230
REMARK   97  A    between atoms: _230  and  _231
REMARK   98  A    between atoms: _234  and  _236
REMARK   99  A    between atoms: _236  and  _237
REMARK  100  A    between atoms: _236  and  _239
REMARK  101  A    between atoms: _239  and  _240
REMARK  102  A    between atoms: _243  and  _245
REMARK  103  A    between atoms: _245  and  _246
REMARK  104  A    between atoms: _245  and  _248
REMARK  105  A    between atoms: _248  and  _249
REMARK  106  A    between atoms: _249  and  _250
REMARK  107  A    between atoms: _252  and  _254
REMARK  108  A    between atoms: _254  and  _255
REMARK  109  A    between atoms: _258  and  _260
REMARK  110  A    between atoms: _260  and  _261
REMARK  111  A    between atoms: _263  and  _265
REMARK  112  A    between atoms: _265  and  _266
REMARK  113  A    between atoms: _268  and  _270
REMARK  114  A    between atoms: _270  and  _271
REMARK  115  A    between atoms: _270  and  _273
REMARK  116  A    between atoms: _273  and  _274
REMARK  117  A    between atoms: _277  and  _279
REMARK  118  A    between atoms: _279  and  _280
REMARK  119  A    between atoms: _279  and  _282
REMARK  120  A    between atoms: _282  and  _283
REMARK  121  A    between atoms: _286  and  _288
REMARK  122  A    between atoms: _288  and  _289
REMARK  123  A    between atoms: _288  and  _291
REMARK  124  A    between atoms: _291  and  _292
REMARK  125  A    between atoms: _292  and  _293
REMARK  126  A    between atoms: _293  and  _294
REMARK  127  A    between atoms: _294  and  _295
REMARK  128  A    between atoms: _299  and  _301
REMARK  129  A    between atoms: _301  and  _302
REMARK  130  A    between atoms: _301  and  _304
REMARK  131  A    between atoms: _304  and  _305
REMARK  132  A    between atoms: _307  and  _309
REMARK  133  A    between atoms: _309  and  _310
REMARK  134  A    between atoms: _309  and  _312
REMARK  135  A    between atoms: _312  and  _313
REMARK  136  A    between atoms: _319  and  _321
REMARK  137  A    between atoms: _321  and  _322
REMARK  138  A    between atoms: _321  and  _324
REMARK  139  A    between atoms: _324  and  _325
REMARK  140  A    between atoms: _328  and  _330
REMARK  141  A    between atoms: _330  and  _331
REMARK  142  A    between atoms: _330  and  _333
REMARK  143  A    between atoms: _333  and  _334
REMARK  144  A    between atoms: _334  and  _335
REMARK  145  A    between atoms: _338  and  _340
REMARK  146  A    between atoms: _340  and  _341
REMARK  147  A    between atoms: _340  and  _343
REMARK  148  A    between atoms: _343  and  _344
REMARK  149  A    between atoms: _349  and  _351
REMARK  150  A    between atoms: _351  and  _352
REMARK  151  A    between atoms: _355  and  _357
REMARK  152  A    between atoms: _357  and  _358
REMARK  153  A    between atoms: _361  and  _363
REMARK  154  A    between atoms: _363  and  _364
REMARK  155  A    between atoms: _363  and  _366
REMARK  156  A    between atoms: _366  and  _367
REMARK  157  A    between atoms: _367  and  _368
REMARK  158  A    between atoms: _368  and  _369
REMARK  159  A    between atoms: _378  and  _380
REMARK  160  A    between atoms: _380  and  _381
REMARK  161  A    between atoms: _380  and  _383
REMARK  162  A    between atoms: _383  and  _384
REMARK  163  A    between atoms: _389  and  _391
REMARK  164  A    between atoms: _391  and  _392
REMARK  165  A    between atoms: _391  and  _394
REMARK  166  A    between atoms: _396  and  _398
REMARK  167  A    between atoms: _398  and  _399
REMARK  168  A    between atoms: _398  and  _401
REMARK  169  A    between atoms: _401  and  _402
REMARK  170  A    between atoms: _405  and  _407
REMARK  171  A    between atoms: _407  and  _408
REMARK  172  A    between atoms: _407  and  _410
REMARK  173  A    between atoms: _410  and  _411
REMARK  174  A    between atoms: _414  and  _416
REMARK  175  A    between atoms: _416  and  _417
REMARK  176  A    between atoms: _416  and  _419
REMARK  177  A    between atoms: _419  and  _420
REMARK  178  A    between atoms: _423  and  _425
REMARK  179  A    between atoms: _425  and  _426
REMARK  180  A    between atoms: _425  and  _428
REMARK  181  A    between atoms: _428  and  _429
REMARK  182  A    between atoms: _429  and  _430
REMARK  183  A    between atoms: _430  and  _431
REMARK  184  A    between atoms: _431  and  _432
REMARK  185  A    between atoms: _436  and  _438
REMARK  186  A    between atoms: _438  and  _439
REMARK  187  A    between atoms: _438  and  _441
REMARK  188  A    between atoms: _441  and  _442
REMARK  189  A    between atoms: _445  and  _447
REMARK  190  A    between atoms: _447  and  _448
REMARK  191  A    between atoms: _450  and  _452
REMARK  192  A    between atoms: _452  and  _453
REMARK  193  A    between atoms: _452  and  _455
REMARK  194  A    between atoms: _455  and  _456
REMARK  195  A    between atoms: _459  and  _461
REMARK  196  A    between atoms: _461  and  _462
REMARK  197  A    between atoms: _461  and  _464
REMARK  198  A    between atoms: _464  and  _465
REMARK  199  A    between atoms: _471  and  _473
REMARK  200  A    between atoms: _473  and  _474
REMARK                            x       y       z     vdW  Elec       q    Type
REMARK                         _______ _______ _______ _____ _____    ______ ____
ROOT
ATOM      1  O   HOH     1     -41.185 -15.336  61.399  0.00  0.00    +0.000 OA
ENDROOT
TORSDOF 0
REMARK  Name = ../refined-set-2016/4cd0/4cd0_pocket.pdb
REMARK  200 active torsions:
REMARK  status: ('A' for Active; 'I' for Inactive)
REMARK    1  A    between atoms: _1  and  _3
REMARK    2  A    between atoms: _3  and  _4
REMARK    3  A    between atoms: _3  and  _6
REMARK    4  A    between atoms: _6  and  _7
REMARK    5  A    between atoms: _7  and  _8
REMARK    6  A    between atoms: _8  and  _9
REMARK    7  A    between atoms: _18  and  _20
REMARK    8  A    between atoms: _20  and  _21
REMARK    9  A    between atoms: _23  and  _25
REMARK   10  A    between atoms: _25  and  _26
REMARK   11  A    between atoms: _25  and  _28
REMARK   12  A    between atoms: _28  and  _29
REMARK   13  A    between atoms: _32  and  _34
REMARK   14  A    between atoms: _34  and  _35
REMARK   15  A    between atoms: _37  and  _39
REMARK   16  A    between atoms: _39  and  _40
REMARK   17  A    between atoms: _39  and  _42
REMARK   18  A    between atoms: _42  and  _43
REMARK   19  A    between atoms: _48  and  _50
REMARK   20  A    between atoms: _50  and  _51
REMARK   21  A    between atoms: _53  and  _55
REMARK   22  A    between atoms: _55  and  _56
REMARK   23  A    between atoms: _59  and  _61
REMARK   24  A    between atoms: _61  and  _62
REMARK   25  A    between atoms: _61  and  _64
REMARK   26  A    between atoms: _64  and  _65
REMARK   27  A    between atoms: _71  and  _73
REMARK   28  A    between atoms: _73  and  _74
REMARK   29  A    between atoms: _76  and  _78
REMARK   30  A    between atoms: _78  and  _79
REMARK   31  A    between atoms: _78  and  _81
REMARK   32  A    between atoms: _81  and  _82
REMARK   33  A    between atoms: _82  and  _83
REMARK   34  A    between atoms: _86  and  _88
REMARK   35  A    between atoms: _88  and  _89
REMARK   36  A    between atoms: _88  and  _91
REMARK   37  A    between atoms: _94  and  _96
REMARK   38  A    between atoms: _96  and  _97
REMARK   39  A    between atoms: _96  and  _99
REMARK   40  A    between atoms: _99  and  _100
REMARK   41  A    between atoms: _105  and  _106
REMARK   42  A    between atoms: _108  and  _110
REMARK   43  A    between atoms: _110  and  _111
REMARK   44  A    between atoms: _110  and  _113
REMARK   45  A    between atoms: _113  and  _114
REMARK   46  A    between atoms: _114  and  _115
REMARK   47  A    between atoms: _118  and  _120
REMARK   48  A    between atoms: _120  and  _121
REMARK   49  A    between atoms: _120  and  _123
REMARK   50  A    between atoms: _126  and  _128
REMARK   51  A    between atoms: _128  and  _129
REMARK   52  A    between atoms: _132  and  _134
REMARK   53  A    between atoms: _134  and  _135
REMARK   54  A    between atoms: _134  and  _137
REMARK   55  A    between atoms: _140  and  _142
REMARK   56  A    between atoms: _142  and  _143
REMARK   57  A    between atoms: _142  and  _145
REMARK   58  A    between atoms: _145  and  _146
REMARK   59  A    between atoms: _146  and  _147
REMARK   60  A    between atoms: _147  and  _148
REMARK   61  A    between atoms: _148  and  _149
REMARK   62  A    between atoms: _153  and  _155
REMARK   63  A    between atoms: _155  and  _156
REMARK   64  A    between atoms: _155  and  _158
REMARK   65  A    between atoms: _158  and  _159
REMARK   66  A    between atoms: _162  and  _164
REMARK   67  A    between atoms: _164  and  _165
REMARK   68  A    between atoms: _164  and  _167
REMARK   69  A    between atoms: _167  and  _168
REMARK   70  A    between atoms: _168  and  _169
REMARK   71  A    between atoms: _172  and  _174
REMARK   72  A    between atoms: _174  and  _175
REMARK   73  A    between atoms: _174  and  _177
REMARK   74  A    between atoms: _180  and  _182
REMARK   75  A    between atoms: _182  and  _183
REMARK   76  A    between atoms: _182  and  _185
REMARK   77  A    between atoms: _185  and  _186
REMARK   78  A    between atoms: _186  and  _187
REMARK   79  A    between atoms: _187  and  _188
REMARK   80  A    between atoms: _197  and  _199
REMARK   81  A    between atoms: _199  and  _200
REMARK   82  A    between atoms: _199  and  _202
REMARK   83  A    between atoms: _202  and  _203
REMARK   84  A    between atoms: _206  and  _208
REMARK   85  A    between atoms: _208  and  _209
REMARK   86  A    between atoms: _208  and  _211
REMARK   87  A    between atoms: _211  and  _212
REMARK   88  A    between atoms: _215  and  _217
REMARK   89  A    between atoms: _217  and  _218
REMARK   90  A    between atoms: _217  and  _220
REMARK   91  A    between atoms: _220  and  _221
REMARK   92  A    between atoms: _221  and  _222
REMARK   93  A    between atoms: _224  and  _226
REMARK   94  A    between atoms: _226  and  _227
REMARK   95  A    between atoms: _226  and  _229
REMARK   96  A    between atoms: _229  and  _230
REMARK   97  A    between atoms: _230  and  _231
REMARK   98  A    between atoms: _234  and  _236
REMARK   99  A    between atoms: _236  and  _237
REMARK  100  A    between atoms: _236  and  _239
REMARK  101  A    between atoms: _239  and  _240
REMARK  102  A    between atoms: _243  and  _245
REMARK  103  A    between atoms: _245  and  _246
REMARK  104  A    between atoms: _245  and  _248
REMARK  105  A    between atoms: _248  and  _249
REMARK  106  A    between atoms: _249  and  _250
REMARK  107  A    between atoms: _252  and  _254
REMARK  108  A    between atoms: _254  and  _255
REMARK  109  A    between atoms: _258  and  _260
REMARK  110  A    between atoms: _260  and  _261
REMARK  111  A    between atoms: _263  and  _265
REMARK  112  A    between atoms: _265  and  _266
REMARK  113  A    between atoms: _268  and  _270
REMARK  114  A    between atoms: _270  and  _271
REMARK  115  A    between atoms: _270  and  _273
REMARK  116  A    between atoms: _273  and  _274
REMARK  117  A    between atoms: _277  and  _279
REMARK  118  A    between atoms: _279  and  _280
REMARK  119  A    between atoms: _279  and  _282
REMARK  120  A    between atoms: _282  and  _283
REMARK  121  A    between atoms: _286  and  _288
REMARK  122  A    between atoms: _288  and  _289
REMARK  123  A    between atoms: _288  and  _291
REMARK  124  A    between atoms: _291  and  _292
REMARK  125  A    between atoms: _292  and  _293
REMARK  126  A    between atoms: _293  and  _294
REMARK  127  A    between atoms: _294  and  _295
REMARK  128  A    between atoms: _299  and  _301
REMARK  129  A    between atoms: _301  and  _302
REMARK  130  A    between atoms: _301  and  _304
REMARK  131  A    between atoms: _304  and  _305
REMARK  132  A    between atoms: _307  and  _309
REMARK  133  A    between atoms: _309  and  _310
REMARK  134  A    between atoms: _309  and  _312
REMARK  135  A    between atoms: _312  and  _313
REMARK  136  A    between atoms: _319  and  _321
REMARK  137  A    between atoms: _321  and  _322
REMARK  138  A    between atoms: _321  and  _324
REMARK  139  A    between atoms: _324  and  _325
REMARK  140  A    between atoms: _328  and  _330
REMARK  141  A    between atoms: _330  and  _331
REMARK  142  A    between atoms: _330  and  _333
REMARK  143  A    between atoms: _333  and  _334
REMARK  144  A    between atoms: _334  and  _335
REMARK  145  A    between atoms: _338  and  _340
REMARK  146  A    between atoms: _340  and  _341
REMARK  147  A    between atoms: _340  and  _343
REMARK  148  A    between atoms: _343  and  _344
REMARK  149  A    between atoms: _349  and  _351
REMARK  150  A    between atoms: _351  and  _352
REMARK  151  A    between atoms: _355  and  _357
REMARK  152  A    between atoms: _357  and  _358
REMARK  153  A    between atoms: _361  and  _363
REMARK  154  A    between atoms: _363  and  _364
REMARK  155  A    between atoms: _363  and  _366
REMARK  156  A    between atoms: _366  and  _367
REMARK  157  A    between atoms: _367  and  _368
REMARK  158  A    between atoms: _368  and  _369
REMARK  159  A    between atoms: _378  and  _380
REMARK  160  A    between atoms: _380  and  _381
REMARK  161  A    between atoms: _380  and  _383
REMARK  162  A    between atoms: _383  and  _384
REMARK  163  A    between atoms: _389  and  _391
REMARK  164  A    between atoms: _391  and  _392
REMARK  165  A    between atoms: _391  and  _394
REMARK  166  A    between atoms: _396  and  _398
REMARK  167  A    between atoms: _398  and  _399
REMARK  168  A    between atoms: _398  and  _401
REMARK  169  A    between atoms: _401  and  _402
REMARK  170  A    between atoms: _405  and  _407
REMARK  171  A    between atoms: _407  and  _408
REMARK  172  A    between atoms: _407  and  _410
REMARK  173  A    between atoms: _410  and  _411
REMARK  174  A    between atoms: _414  and  _416
REMARK  175  A    between atoms: _416  and  _417
REMARK  176  A    between atoms: _416  and  _419
REMARK  177  A    between atoms: _419  and  _420
REMARK  178  A    between atoms: _423  and  _425
REMARK  179  A    between atoms: _425  and  _426
REMARK  180  A    between atoms: _425  and  _428
REMARK  181  A    between atoms: _428  and  _429
REMARK  182  A    between atoms: _429  and  _430
REMARK  183  A    between atoms: _430  and  _431
REMARK  184  A    between atoms: _431  and  _432
REMARK  185  A    between atoms: _436  and  _438
REMARK  186  A    between atoms: _438  and  _439
REMARK  187  A    between atoms: _438  and  _441
REMARK  188  A    between atoms: _441  and  _442
REMARK  189  A    between atoms: _445  and  _447
REMARK  190  A    between atoms: _447  and  _448
REMARK  191  A    between atoms: _450  and  _452
REMARK  192  A    between atoms: _452  and  _453
REMARK  193  A    between atoms: _452  and  _455
REMARK  194  A    between atoms: _455  and  _456
REMARK  195  A    between atoms: _459  and  _461
REMARK  196  A    between atoms: _461  and  _462
REMARK  197  A    between atoms: _461  and  _464
REMARK  198  A    between atoms: _464  and  _465
REMARK  199  A    between atoms: _471  and  _473
REMARK  200  A    between atoms: _473  and  _474
REMARK                            x       y       z     vdW  Elec       q    Type
REMARK                         _______ _______ _______ _____ _____    ______ ____
ROOT
ATOM      1  O   HOH     1     -26.098 -24.073  58.401  0.00  0.00    +0.000 OA
ENDROOT
TORSDOF 0
