REMARK  Name = ../refined-set-2016/2bak/2bak_pocket.pdb
REMARK  247 active torsions:
REMARK  status: ('A' for Active; 'I' for Inactive)
REMARK    1  A    between atoms: _2  and  _3
REMARK    2  A    between atoms: _8  and  _10
REMARK    3  A    between atoms: _10  and  _11
REMARK    4  A    between atoms: _10  and  _13
REMARK    5  A    between atoms: _16  and  _18
REMARK    6  A    between atoms: _18  and  _19
REMARK    7  A    between atoms: _21  and  _23
REMARK    8  A    between atoms: _23  and  _24
REMARK    9  A    between atoms: _23  and  _26
REMARK   10  A    between atoms: _26  and  _27
REMARK   11  A    between atoms: _29  and  _31
REMARK   12  A    between atoms: _31  and  _32
REMARK   13  A    between atoms: _34  and  _36
REMARK   14  A    between atoms: _36  and  _37
REMARK   15  A    between atoms: _36  and  _39
REMARK   16  A    between atoms: _39  and  _40
REMARK   17  A    between atoms: _45  and  _46
REMARK   18  A    between atoms: _48  and  _50
REMARK   19  A    between atoms: _50  and  _51
REMARK   20  A    between atoms: _53  and  _55
REMARK   21  A    between atoms: _55  and  _56
REMARK   22  A    between atoms: _55  and  _58
REMARK   23  A    between atoms: _58  and  _59
REMARK   24  A    between atoms: _61  and  _63
REMARK   25  A    between atoms: _63  and  _64
REMARK   26  A    between atoms: _63  and  _66
REMARK   27  A    between atoms: _69  and  _71
REMARK   28  A    between atoms: _71  and  _72
REMARK   29  A    between atoms: _71  and  _74
REMARK   30  A    between atoms: _76  and  _78
REMARK   31  A    between atoms: _78  and  _79
REMARK   32  A    between atoms: _82  and  _84
REMARK   33  A    between atoms: _84  and  _85
REMARK   34  A    between atoms: _84  and  _87
REMARK   35  A    between atoms: _87  and  _88
REMARK   36  A    between atoms: _88  and  _89
REMARK   37  A    between atoms: _89  and  _90
REMARK   38  A    between atoms: _99  and  _101
REMARK   39  A    between atoms: _101  and  _102
REMARK   40  A    between atoms: _101  and  _104
REMARK   41  A    between atoms: _107  and  _109
REMARK   42  A    between atoms: _109  and  _110
REMARK   43  A    between atoms: _113  and  _115
REMARK   44  A    between atoms: _115  and  _116
REMARK   45  A    between atoms: _115  and  _118
REMARK   46  A    between atoms: _121  and  _123
REMARK   47  A    between atoms: _123  and  _124
REMARK   48  A    between atoms: _123  and  _126
REMARK   49  A    between atoms: _126  and  _127
REMARK   50  A    between atoms: _127  and  _128
REMARK   51  A    between atoms: _128  and  _129
REMARK   52  A    between atoms: _129  and  _130
REMARK   53  A    between atoms: _134  and  _136
REMARK   54  A    between atoms: _136  and  _137
REMARK   55  A    between atoms: _136  and  _139
REMARK   56  A    between atoms: _139  and  _140
REMARK   57  A    between atoms: _140  and  _141
REMARK   58  A    between atoms: _141  and  _142
REMARK   59  A    between atoms: _142  and  _143
REMARK   60  A    between atoms: _147  and  _149
REMARK   61  A    between atoms: _149  and  _150
REMARK   62  A    between atoms: _149  and  _152
REMARK   63  A    between atoms: _152  and  _153
REMARK   64  A    between atoms: _156  and  _158
REMARK   65  A    between atoms: _158  and  _159
REMARK   66  A    between atoms: _158  and  _161
REMARK   67  A    between atoms: _161  and  _162
REMARK   68  A    between atoms: _162  and  _163
REMARK   69  A    between atoms: _163  and  _164
REMARK   70  A    between atoms: _173  and  _175
REMARK   71  A    between atoms: _175  and  _176
REMARK   72  A    between atoms: _175  and  _178
REMARK   73  A    between atoms: _178  and  _179
REMARK   74  A    between atoms: _179  and  _180
REMARK   75  A    between atoms: _180  and  _181
REMARK   76  A    between atoms: _190  and  _192
REMARK   77  A    between atoms: _192  and  _193
REMARK   78  A    between atoms: _192  and  _195
REMARK   79  A    between atoms: _195  and  _196
REMARK   80  A    between atoms: _196  and  _197
REMARK   81  A    between atoms: _200  and  _202
REMARK   82  A    between atoms: _202  and  _203
REMARK   83  A    between atoms: _202  and  _205
REMARK   84  A    between atoms: _205  and  _206
REMARK   85  A    between atoms: _209  and  _211
REMARK   86  A    between atoms: _211  and  _212
REMARK   87  A    between atoms: _211  and  _214
REMARK   88  A    between atoms: _214  and  _215
REMARK   89  A    between atoms: _218  and  _220
REMARK   90  A    between atoms: _220  and  _221
REMARK   91  A    between atoms: _220  and  _223
REMARK   92  A    between atoms: _223  and  _224
REMARK   93  A    between atoms: _227  and  _229
REMARK   94  A    between atoms: _229  and  _230
REMARK   95  A    between atoms: _229  and  _232
REMARK   96  A    between atoms: _232  and  _233
REMARK   97  A    between atoms: _233  and  _234
REMARK   98  A    between atoms: _236  and  _238
REMARK   99  A    between atoms: _238  and  _239
REMARK  100  A    between atoms: _238  and  _241
REMARK  101  A    between atoms: _241  and  _242
REMARK  102  A    between atoms: _247  and  _249
REMARK  103  A    between atoms: _249  and  _250
REMARK  104  A    between atoms: _249  and  _252
REMARK  105  A    between atoms: _255  and  _257
REMARK  106  A    between atoms: _257  and  _258
REMARK  107  A    between atoms: _257  and  _260
REMARK  108  A    between atoms: _260  and  _261
REMARK  109  A    between atoms: _264  and  _266
REMARK  110  A    between atoms: _266  and  _267
REMARK  111  A    between atoms: _269  and  _271
REMARK  112  A    between atoms: _271  and  _272
REMARK  113  A    between atoms: _271  and  _274
REMARK  114  A    between atoms: _274  and  _275
REMARK  115  A    between atoms: _278  and  _280
REMARK  116  A    between atoms: _280  and  _281
REMARK  117  A    between atoms: _280  and  _283
REMARK  118  A    between atoms: _283  and  _284
REMARK  119  A    between atoms: _287  and  _289
REMARK  120  A    between atoms: _289  and  _290
REMARK  121  A    between atoms: _289  and  _292
REMARK  122  A    between atoms: _292  and  _293
REMARK  123  A    between atoms: _296  and  _298
REMARK  124  A    between atoms: _298  and  _299
REMARK  125  A    between atoms: _298  and  _301
REMARK  126  A    between atoms: _301  and  _302
REMARK  127  A    between atoms: _307  and  _308
REMARK  128  A    between atoms: _310  and  _312
REMARK  129  A    between atoms: _312  and  _313
REMARK  130  A    between atoms: _312  and  _315
REMARK  131  A    between atoms: _315  and  _316
REMARK  132  A    between atoms: _319  and  _321
REMARK  133  A    between atoms: _321  and  _322
REMARK  134  A    between atoms: _321  and  _324
REMARK  135  A    between atoms: _327  and  _329
REMARK  136  A    between atoms: _329  and  _330
REMARK  137  A    between atoms: _329  and  _332
REMARK  138  A    between atoms: _332  and  _333
REMARK  139  A    between atoms: _336  and  _338
REMARK  140  A    between atoms: _338  and  _339
REMARK  141  A    between atoms: _338  and  _341
REMARK  142  A    between atoms: _341  and  _342
REMARK  143  A    between atoms: _347  and  _349
REMARK  144  A    between atoms: _349  and  _350
REMARK  145  A    between atoms: _349  and  _352
REMARK  146  A    between atoms: _352  and  _353
REMARK  147  A    between atoms: _356  and  _358
REMARK  148  A    between atoms: _358  and  _359
REMARK  149  A    between atoms: _358  and  _361
REMARK  150  A    between atoms: _361  and  _362
REMARK  151  A    between atoms: _362  and  _363
REMARK  152  A    between atoms: _365  and  _367
REMARK  153  A    between atoms: _367  and  _368
REMARK  154  A    between atoms: _370  and  _372
REMARK  155  A    between atoms: _372  and  _373
REMARK  156  A    between atoms: _376  and  _378
REMARK  157  A    between atoms: _378  and  _379
REMARK  158  A    between atoms: _378  and  _381
REMARK  159  A    between atoms: _381  and  _382
REMARK  160  A    between atoms: _385  and  _387
REMARK  161  A    between atoms: _387  and  _388
REMARK  162  A    between atoms: _387  and  _390
REMARK  163  A    between atoms: _390  and  _391
REMARK  164  A    between atoms: _396  and  _398
REMARK  165  A    between atoms: _398  and  _399
REMARK  166  A    between atoms: _398  and  _401
REMARK  167  A    between atoms: _401  and  _402
REMARK  168  A    between atoms: _407  and  _409
REMARK  169  A    between atoms: _409  and  _410
REMARK  170  A    between atoms: _412  and  _414
REMARK  171  A    between atoms: _414  and  _415
REMARK  172  A    between atoms: _414  and  _417
REMARK  173  A    between atoms: _417  and  _418
REMARK  174  A    between atoms: _421  and  _423
REMARK  175  A    between atoms: _423  and  _424
REMARK  176  A    between atoms: _423  and  _426
REMARK  177  A    between atoms: _426  and  _427
REMARK  178  A    between atoms: _432  and  _433
REMARK  179  A    between atoms: _435  and  _437
REMARK  180  A    between atoms: _437  and  _438
REMARK  181  A    between atoms: _437  and  _440
REMARK  182  A    between atoms: _440  and  _441
REMARK  183  A    between atoms: _444  and  _446
REMARK  184  A    between atoms: _446  and  _447
REMARK  185  A    between atoms: _446  and  _449
REMARK  186  A    between atoms: _449  and  _450
REMARK  187  A    between atoms: _453  and  _455
REMARK  188  A    between atoms: _455  and  _456
REMARK  189  A    between atoms: _455  and  _458
REMARK  190  A    between atoms: _458  and  _459
REMARK  191  A    between atoms: _462  and  _464
REMARK  192  A    between atoms: _464  and  _465
REMARK  193  A    between atoms: _464  and  _467
REMARK  194  A    between atoms: _467  and  _468
REMARK  195  A    between atoms: _473  and  _475
REMARK  196  A    between atoms: _475  and  _476
REMARK  197  A    between atoms: _475  and  _478
REMARK  198  A    between atoms: _478  and  _479
REMARK  199  A    between atoms: _479  and  _480
REMARK  200  A    between atoms: _480  and  _481
REMARK  201  A    between atoms: _490  and  _492
REMARK  202  A    between atoms: _492  and  _493
REMARK  203  A    between atoms: _492  and  _495
REMARK  204  A    between atoms: _495  and  _496
REMARK  205  A    between atoms: _499  and  _501
REMARK  206  A    between atoms: _501  and  _502
REMARK  207  A    between atoms: _501  and  _504
REMARK  208  A    between atoms: _504  and  _505
REMARK  209  A    between atoms: _508  and  _510
REMARK  210  A    between atoms: _510  and  _511
REMARK  211  A    between atoms: _510  and  _513
REMARK  212  A    between atoms: _513  and  _514
REMARK  213  A    between atoms: _516  and  _518
REMARK  214  A    between atoms: _518  and  _519
REMARK  215  A    between atoms: _518  and  _521
REMARK  216  A    between atoms: _521  and  _522
REMARK  217  A    between atoms: _527  and  _529
REMARK  218  A    between atoms: _529  and  _530
REMARK  219  A    between atoms: _533  and  _535
REMARK  220  A    between atoms: _535  and  _536
REMARK  221  A    between atoms: _535  and  _538
REMARK  222  A    between atoms: _538  and  _539
REMARK  223  A    between atoms: _539  and  _540
REMARK  224  A    between atoms: _540  and  _541
REMARK  225  A    between atoms: _541  and  _542
REMARK  226  A    between atoms: _546  and  _548
REMARK  227  A    between atoms: _548  and  _549
REMARK  228  A    between atoms: _548  and  _551
REMARK  229  A    between atoms: _551  and  _552
REMARK  230  A    between atoms: _555  and  _557
REMARK  231  A    between atoms: _557  and  _558
REMARK  232  A    between atoms: _557  and  _560
REMARK  233  A    between atoms: _560  and  _561
REMARK  234  A    between atoms: _564  and  _566
REMARK  235  A    between atoms: _566  and  _567
REMARK  236  A    between atoms: _566  and  _569
REMARK  237  A    between atoms: _569  and  _570
REMARK  238  A    between atoms: _573  and  _575
REMARK  239  A    between atoms: _575  and  _576
REMARK  240  A    between atoms: _575  and  _578
REMARK  241  A    between atoms: _578  and  _579
REMARK  242  A    between atoms: _585  and  _587
REMARK  243  A    between atoms: _587  and  _588
REMARK  244  A    between atoms: _590  and  _592
REMARK  245  A    between atoms: _592  and  _593
REMARK  246  A    between atoms: _592  and  _595
REMARK  247  A    between atoms: _595  and  _596
REMARK                            x       y       z     vdW  Elec       q    Type
REMARK                         _______ _______ _______ _____ _____    ______ ____
ROOT
ATOM      1  C   VAL A   2      -7.159   3.268  28.856  0.00  0.00    +0.241 C 
ATOM      2  O   VAL A   2      -5.947   3.104  29.038  0.00  0.00    -0.273 OA
ATOM      3  N   GLY A   3      -7.692   4.461  28.595  0.00  0.00    -0.295 N 
ATOM      4  H   GLY A   3      -8.726   4.547  28.521  0.00  0.00    +0.150 HD
ENDROOT
BRANCH   1   5
ATOM      5  CA  VAL A   2      -8.134   2.079  28.998  0.00  0.00    +0.148 C 
BRANCH   5   8
ATOM      6  C   PRO A   1     -10.534   2.021  29.498  0.00  0.00    +0.239 C 
ATOM      7  O   PRO A   1     -10.362   1.362  30.524  0.00  0.00    -0.274 OA
ATOM      8  N   VAL A   2      -9.539   2.395  28.694  0.00  0.00    -0.297 N 
ATOM      9  H   VAL A   2      -9.762   2.925  27.827  0.00  0.00    +0.150 HD
BRANCH   6  14
ATOM     10  N   PRO A   1     -12.968   1.407  29.352  0.00  0.00    -0.210 NA
ATOM     11  CD  PRO A   1     -14.121   1.979  30.077  0.00  0.00    +0.089 C 
ATOM     12  CG  PRO A   1     -13.899   3.463  30.043  0.00  0.00    +0.021 C 
ATOM     13  CB  PRO A   1     -12.423   3.646  29.866  0.00  0.00    +0.028 C 
ATOM     14  CA  PRO A   1     -11.947   2.425  29.065  0.00  0.00    +0.149 C 
ENDBRANCH   6  14
ENDBRANCH   5   8
BRANCH   5  15
ATOM     15  CB  VAL A   2      -7.625   0.865  28.175  0.00  0.00    +0.027 C 
ATOM     16  CG2 VAL A   2      -8.346  -0.391  28.614  0.00  0.00    +0.002 C 
ATOM     17  CG1 VAL A   2      -7.797   1.089  26.693  0.00  0.00    +0.002 C 
ENDBRANCH   5  15
ENDBRANCH   1   5
BRANCH   3  18
ATOM     18  CA  GLY A   3      -6.869   5.648  28.410  0.00  0.00    +0.176 C 
BRANCH  18  19
ATOM     19  C   GLY A   3      -7.412   6.559  27.319  0.00  0.00    +0.243 C 
ATOM     20  N   SER A   4      -7.394   7.856  27.584  0.00  0.00    -0.295 N 
ATOM     21  H   SER A   4      -7.035   8.181  28.504  0.00  0.00    +0.150 HD
ATOM     22  O   GLY A   3      -7.865   6.105  26.274  0.00  0.00    -0.273 OA
BRANCH  20  23
ATOM     23  CA  SER A   4      -7.864   8.838  26.619  0.00  0.00    +0.178 C 
BRANCH  23  24
ATOM     24  C   SER A   4      -6.933  10.045  26.596  0.00  0.00    +0.243 C 
ATOM     25  O   SER A   4      -6.298  10.381  27.604  0.00  0.00    -0.273 OA
ATOM     26  N   GLY A   5      -6.855  10.694  25.437  0.00  0.00    -0.296 N 
ATOM     27  H   GLY A   5      -7.335  10.306  24.600  0.00  0.00    +0.150 HD
BRANCH  26  28
ATOM     28  CA  GLY A   5      -6.111  11.933  25.322  0.00  0.00    +0.163 C 
BRANCH  28  29
ATOM     29  C   GLY A   5      -6.531  12.780  24.129  0.00  0.00    +0.229 C 
ATOM     30  O   GLY A   5      -7.560  12.530  23.496  0.00  0.00    -0.286 OA
ENDBRANCH  28  29
ENDBRANCH  26  28
ENDBRANCH  23  24
BRANCH  23  31
ATOM     31  CB  SER A   4      -9.287   9.296  26.941  0.00  0.00    +0.166 C 
BRANCH  31  32
ATOM     32  OG  SER A   4      -9.391   9.780  28.266  0.00  0.00    -0.380 OA
ATOM     33  H   SER A   4     -10.323  10.067  28.439  0.00  0.00    +0.211 HD
ENDBRANCH  31  32
ENDBRANCH  23  31
ENDBRANCH  20  23
ENDBRANCH  18  19
ENDBRANCH   3  18
TORSDOF 12
REMARK  Name = ../refined-set-2016/2bak/2bak_pocket.pdb
REMARK  247 active torsions:
REMARK  status: ('A' for Active; 'I' for Inactive)
REMARK    1  A    between atoms: _2  and  _3
REMARK    2  A    between atoms: _8  and  _10
REMARK    3  A    between atoms: _10  and  _11
REMARK    4  A    between atoms: _10  and  _13
REMARK    5  A    between atoms: _16  and  _18
REMARK    6  A    between atoms: _18  and  _19
REMARK    7  A    between atoms: _21  and  _23
REMARK    8  A    between atoms: _23  and  _24
REMARK    9  A    between atoms: _23  and  _26
REMARK   10  A    between atoms: _26  and  _27
REMARK   11  A    between atoms: _29  and  _31
REMARK   12  A    between atoms: _31  and  _32
REMARK   13  A    between atoms: _34  and  _36
REMARK   14  A    between atoms: _36  and  _37
REMARK   15  A    between atoms: _36  and  _39
REMARK   16  A    between atoms: _39  and  _40
REMARK   17  A    between atoms: _45  and  _46
REMARK   18  A    between atoms: _48  and  _50
REMARK   19  A    between atoms: _50  and  _51
REMARK   20  A    between atoms: _53  and  _55
REMARK   21  A    between atoms: _55  and  _56
REMARK   22  A    between atoms: _55  and  _58
REMARK   23  A    between atoms: _58  and  _59
REMARK   24  A    between atoms: _61  and  _63
REMARK   25  A    between atoms: _63  and  _64
REMARK   26  A    between atoms: _63  and  _66
REMARK   27  A    between atoms: _69  and  _71
REMARK   28  A    between atoms: _71  and  _72
REMARK   29  A    between atoms: _71  and  _74
REMARK   30  A    between atoms: _76  and  _78
REMARK   31  A    between atoms: _78  and  _79
REMARK   32  A    between atoms: _82  and  _84
REMARK   33  A    between atoms: _84  and  _85
REMARK   34  A    between atoms: _84  and  _87
REMARK   35  A    between atoms: _87  and  _88
REMARK   36  A    between atoms: _88  and  _89
REMARK   37  A    between atoms: _89  and  _90
REMARK   38  A    between atoms: _99  and  _101
REMARK   39  A    between atoms: _101  and  _102
REMARK   40  A    between atoms: _101  and  _104
REMARK   41  A    between atoms: _107  and  _109
REMARK   42  A    between atoms: _109  and  _110
REMARK   43  A    between atoms: _113  and  _115
REMARK   44  A    between atoms: _115  and  _116
REMARK   45  A    between atoms: _115  and  _118
REMARK   46  A    between atoms: _121  and  _123
REMARK   47  A    between atoms: _123  and  _124
REMARK   48  A    between atoms: _123  and  _126
REMARK   49  A    between atoms: _126  and  _127
REMARK   50  A    between atoms: _127  and  _128
REMARK   51  A    between atoms: _128  and  _129
REMARK   52  A    between atoms: _129  and  _130
REMARK   53  A    between atoms: _134  and  _136
REMARK   54  A    between atoms: _136  and  _137
REMARK   55  A    between atoms: _136  and  _139
REMARK   56  A    between atoms: _139  and  _140
REMARK   57  A    between atoms: _140  and  _141
REMARK   58  A    between atoms: _141  and  _142
REMARK   59  A    between atoms: _142  and  _143
REMARK   60  A    between atoms: _147  and  _149
REMARK   61  A    between atoms: _149  and  _150
REMARK   62  A    between atoms: _149  and  _152
REMARK   63  A    between atoms: _152  and  _153
REMARK   64  A    between atoms: _156  and  _158
REMARK   65  A    between atoms: _158  and  _159
REMARK   66  A    between atoms: _158  and  _161
REMARK   67  A    between atoms: _161  and  _162
REMARK   68  A    between atoms: _162  and  _163
REMARK   69  A    between atoms: _163  and  _164
REMARK   70  A    between atoms: _173  and  _175
REMARK   71  A    between atoms: _175  and  _176
REMARK   72  A    between atoms: _175  and  _178
REMARK   73  A    between atoms: _178  and  _179
REMARK   74  A    between atoms: _179  and  _180
REMARK   75  A    between atoms: _180  and  _181
REMARK   76  A    between atoms: _190  and  _192
REMARK   77  A    between atoms: _192  and  _193
REMARK   78  A    between atoms: _192  and  _195
REMARK   79  A    between atoms: _195  and  _196
REMARK   80  A    between atoms: _196  and  _197
REMARK   81  A    between atoms: _200  and  _202
REMARK   82  A    between atoms: _202  and  _203
REMARK   83  A    between atoms: _202  and  _205
REMARK   84  A    between atoms: _205  and  _206
REMARK   85  A    between atoms: _209  and  _211
REMARK   86  A    between atoms: _211  and  _212
REMARK   87  A    between atoms: _211  and  _214
REMARK   88  A    between atoms: _214  and  _215
REMARK   89  A    between atoms: _218  and  _220
REMARK   90  A    between atoms: _220  and  _221
REMARK   91  A    between atoms: _220  and  _223
REMARK   92  A    between atoms: _223  and  _224
REMARK   93  A    between atoms: _227  and  _229
REMARK   94  A    between atoms: _229  and  _230
REMARK   95  A    between atoms: _229  and  _232
REMARK   96  A    between atoms: _232  and  _233
REMARK   97  A    between atoms: _233  and  _234
REMARK   98  A    between atoms: _236  and  _238
REMARK   99  A    between atoms: _238  and  _239
REMARK  100  A    between atoms: _238  and  _241
REMARK  101  A    between atoms: _241  and  _242
REMARK  102  A    between atoms: _247  and  _249
REMARK  103  A    between atoms: _249  and  _250
REMARK  104  A    between atoms: _249  and  _252
REMARK  105  A    between atoms: _255  and  _257
REMARK  106  A    between atoms: _257  and  _258
REMARK  107  A    between atoms: _257  and  _260
REMARK  108  A    between atoms: _260  and  _261
REMARK  109  A    between atoms: _264  and  _266
REMARK  110  A    between atoms: _266  and  _267
REMARK  111  A    between atoms: _269  and  _271
REMARK  112  A    between atoms: _271  and  _272
REMARK  113  A    between atoms: _271  and  _274
REMARK  114  A    between atoms: _274  and  _275
REMARK  115  A    between atoms: _278  and  _280
REMARK  116  A    between atoms: _280  and  _281
REMARK  117  A    between atoms: _280  and  _283
REMARK  118  A    between atoms: _283  and  _284
REMARK  119  A    between atoms: _287  and  _289
REMARK  120  A    between atoms: _289  and  _290
REMARK  121  A    between atoms: _289  and  _292
REMARK  122  A    between atoms: _292  and  _293
REMARK  123  A    between atoms: _296  and  _298
REMARK  124  A    between atoms: _298  and  _299
REMARK  125  A    between atoms: _298  and  _301
REMARK  126  A    between atoms: _301  and  _302
REMARK  127  A    between atoms: _307  and  _308
REMARK  128  A    between atoms: _310  and  _312
REMARK  129  A    between atoms: _312  and  _313
REMARK  130  A    between atoms: _312  and  _315
REMARK  131  A    between atoms: _315  and  _316
REMARK  132  A    between atoms: _319  and  _321
REMARK  133  A    between atoms: _321  and  _322
REMARK  134  A    between atoms: _321  and  _324
REMARK  135  A    between atoms: _327  and  _329
REMARK  136  A    between atoms: _329  and  _330
REMARK  137  A    between atoms: _329  and  _332
REMARK  138  A    between atoms: _332  and  _333
REMARK  139  A    between atoms: _336  and  _338
REMARK  140  A    between atoms: _338  and  _339
REMARK  141  A    between atoms: _338  and  _341
REMARK  142  A    between atoms: _341  and  _342
REMARK  143  A    between atoms: _347  and  _349
REMARK  144  A    between atoms: _349  and  _350
REMARK  145  A    between atoms: _349  and  _352
REMARK  146  A    between atoms: _352  and  _353
REMARK  147  A    between atoms: _356  and  _358
REMARK  148  A    between atoms: _358  and  _359
REMARK  149  A    between atoms: _358  and  _361
REMARK  150  A    between atoms: _361  and  _362
REMARK  151  A    between atoms: _362  and  _363
REMARK  152  A    between atoms: _365  and  _367
REMARK  153  A    between atoms: _367  and  _368
REMARK  154  A    between atoms: _370  and  _372
REMARK  155  A    between atoms: _372  and  _373
REMARK  156  A    between atoms: _376  and  _378
REMARK  157  A    between atoms: _378  and  _379
REMARK  158  A    between atoms: _378  and  _381
REMARK  159  A    between atoms: _381  and  _382
REMARK  160  A    between atoms: _385  and  _387
REMARK  161  A    between atoms: _387  and  _388
REMARK  162  A    between atoms: _387  and  _390
REMARK  163  A    between atoms: _390  and  _391
REMARK  164  A    between atoms: _396  and  _398
REMARK  165  A    between atoms: _398  and  _399
REMARK  166  A    between atoms: _398  and  _401
REMARK  167  A    between atoms: _401  and  _402
REMARK  168  A    between atoms: _407  and  _409
REMARK  169  A    between atoms: _409  and  _410
REMARK  170  A    between atoms: _412  and  _414
REMARK  171  A    between atoms: _414  and  _415
REMARK  172  A    between atoms: _414  and  _417
REMARK  173  A    between atoms: _417  and  _418
REMARK  174  A    between atoms: _421  and  _423
REMARK  175  A    between atoms: _423  and  _424
REMARK  176  A    between atoms: _423  and  _426
REMARK  177  A    between atoms: _426  and  _427
REMARK  178  A    between atoms: _432  and  _433
REMARK  179  A    between atoms: _435  and  _437
REMARK  180  A    between atoms: _437  and  _438
REMARK  181  A    between atoms: _437  and  _440
REMARK  182  A    between atoms: _440  and  _441
REMARK  183  A    between atoms: _444  and  _446
REMARK  184  A    between atoms: _446  and  _447
REMARK  185  A    between atoms: _446  and  _449
REMARK  186  A    between atoms: _449  and  _450
REMARK  187  A    between atoms: _453  and  _455
REMARK  188  A    between atoms: _455  and  _456
REMARK  189  A    between atoms: _455  and  _458
REMARK  190  A    between atoms: _458  and  _459
REMARK  191  A    between atoms: _462  and  _464
REMARK  192  A    between atoms: _464  and  _465
REMARK  193  A    between atoms: _464  and  _467
REMARK  194  A    between atoms: _467  and  _468
REMARK  195  A    between atoms: _473  and  _475
REMARK  196  A    between atoms: _475  and  _476
REMARK  197  A    between atoms: _475  and  _478
REMARK  198  A    between atoms: _478  and  _479
REMARK  199  A    between atoms: _479  and  _480
REMARK  200  A    between atoms: _480  and  _481
REMARK  201  A    between atoms: _490  and  _492
REMARK  202  A    between atoms: _492  and  _493
REMARK  203  A    between atoms: _492  and  _495
REMARK  204  A    between atoms: _495  and  _496
REMARK  205  A    between atoms: _499  and  _501
REMARK  206  A    between atoms: _501  and  _502
REMARK  207  A    between atoms: _501  and  _504
REMARK  208  A    between atoms: _504  and  _505
REMARK  209  A    between atoms: _508  and  _510
REMARK  210  A    between atoms: _510  and  _511
REMARK  211  A    between atoms: _510  and  _513
REMARK  212  A    between atoms: _513  and  _514
REMARK  213  A    between atoms: _516  and  _518
REMARK  214  A    between atoms: _518  and  _519
REMARK  215  A    between atoms: _518  and  _521
REMARK  216  A    between atoms: _521  and  _522
REMARK  217  A    between atoms: _527  and  _529
REMARK  218  A    between atoms: _529  and  _530
REMARK  219  A    between atoms: _533  and  _535
REMARK  220  A    between atoms: _535  and  _536
REMARK  221  A    between atoms: _535  and  _538
REMARK  222  A    between atoms: _538  and  _539
REMARK  223  A    between atoms: _539  and  _540
REMARK  224  A    between atoms: _540  and  _541
REMARK  225  A    between atoms: _541  and  _542
REMARK  226  A    between atoms: _546  and  _548
REMARK  227  A    between atoms: _548  and  _549
REMARK  228  A    between atoms: _548  and  _551
REMARK  229  A    between atoms: _551  and  _552
REMARK  230  A    between atoms: _555  and  _557
REMARK  231  A    between atoms: _557  and  _558
REMARK  232  A    between atoms: _557  and  _560
REMARK  233  A    between atoms: _560  and  _561
REMARK  234  A    between atoms: _564  and  _566
REMARK  235  A    between atoms: _566  and  _567
REMARK  236  A    between atoms: _566  and  _569
REMARK  237  A    between atoms: _569  and  _570
REMARK  238  A    between atoms: _573  and  _575
REMARK  239  A    between atoms: _575  and  _576
REMARK  240  A    between atoms: _575  and  _578
REMARK  241  A    between atoms: _578  and  _579
REMARK  242  A    between atoms: _585  and  _587
REMARK  243  A    between atoms: _587  and  _588
REMARK  244  A    between atoms: _590  and  _592
REMARK  245  A    between atoms: _592  and  _593
REMARK  246  A    between atoms: _592  and  _595
REMARK  247  A    between atoms: _595  and  _596
REMARK                            x       y       z     vdW  Elec       q    Type
REMARK                         _______ _______ _______ _____ _____    ______ ____
ROOT
ATOM      1  CA  SER A   3     -10.175   7.534  23.330  0.00  0.00    +0.178 C 
ENDROOT
BRANCH   1   4
ATOM      2  C   GLY A   2      -8.929   9.067  21.893  0.00  0.00    +0.243 C 
ATOM      3  O   GLY A   2      -7.983   9.086  22.696  0.00  0.00    -0.273 OA
ATOM      4  N   SER A   3     -10.074   8.435  22.172  0.00  0.00    -0.295 N 
ATOM      5  H   SER A   3     -10.904   8.583  21.562  0.00  0.00    +0.150 HD
BRANCH   2   6
ATOM      6  CA  GLY A   2      -8.802   9.772  20.531  0.00  0.00    +0.176 C 
BRANCH   6   8
ATOM      7  C   TYR A   1      -7.205  11.274  19.340  0.00  0.00    +0.239 C 
ATOM      8  N   GLY A   2      -7.800  10.852  20.473  0.00  0.00    -0.296 N 
ATOM      9  H   GLY A   2      -7.535  11.318  21.364  0.00  0.00    +0.150 HD
ATOM     10  O   TYR A   1      -7.445  10.767  18.220  0.00  0.00    -0.274 OA
BRANCH   7  11
ATOM     11  CA  TYR A   1      -6.146  12.435  19.484  0.00  0.00    +0.149 C 
BRANCH  11  12
ATOM     12  N   TYR A   1      -6.425  13.325  20.648  0.00  0.00    -0.238 NA
ATOM     13  H   TYR A   1      -7.418  13.546  20.865  0.00  0.00    +0.142 HD
ENDBRANCH  11  12
BRANCH  11  14
ATOM     14  CB  TYR A   1      -4.738  11.806  19.577  0.00  0.00    +0.053 C 
BRANCH  14  15
ATOM     15  CG  TYR A   1      -3.659  12.299  18.597  0.00  0.00    -0.020 A 
ATOM     16  CD2 TYR A   1      -2.845  13.416  18.879  0.00  0.00    -0.001 A 
ATOM     17  CE2 TYR A   1      -1.834  13.836  17.982  0.00  0.00    +0.036 A 
ATOM     18  CZ  TYR A   1      -1.625  13.132  16.813  0.00  0.00    +0.134 A 
ATOM     19  CE1 TYR A   1      -2.407  12.013  16.523  0.00  0.00    +0.036 A 
ATOM     20  CD1 TYR A   1      -3.400  11.600  17.416  0.00  0.00    -0.001 A 
BRANCH  18  21
ATOM     21  OH  TYR A   1      -0.633  13.544  15.938  0.00  0.00    -0.506 OA
ATOM     22  HH  TYR A   1      -0.613  12.938  15.155  0.00  0.00    +0.292 HD
ENDBRANCH  18  21
ENDBRANCH  14  15
ENDBRANCH  11  14
ENDBRANCH   7  11
ENDBRANCH   6   8
ENDBRANCH   2   6
ENDBRANCH   1   4
BRANCH   1  23
ATOM     23  C   SER A   3     -10.169   6.060  22.900  0.00  0.00    +0.243 C 
ATOM     24  N   VAL A   4      -9.675   5.190  23.794  0.00  0.00    -0.297 N 
ATOM     25  H   VAL A   4      -9.397   5.547  24.730  0.00  0.00    +0.150 HD
ATOM     26  O   SER A   3     -10.600   5.728  21.795  0.00  0.00    -0.273 OA
BRANCH  24  27
ATOM     27  CA  VAL A   4      -9.508   3.755  23.514  0.00  0.00    +0.149 C 
BRANCH  27  28
ATOM     28  C   VAL A   4     -10.257   2.893  24.537  0.00  0.00    +0.241 C 
ATOM     29  O   VAL A   4     -10.209   3.146  25.744  0.00  0.00    -0.273 OA
ATOM     30  N   CYS A   5     -10.967   1.888  24.038  0.00  0.00    -0.296 N 
ATOM     31  H   CYS A   5     -11.069   1.816  23.006  0.00  0.00    +0.150 HD
BRANCH  30  32
ATOM     32  CA  CYS A   5     -11.609   0.884  24.872  0.00  0.00    +0.160 C 
BRANCH  32  33
ATOM     33  C   CYS A   5     -11.141  -0.521  24.505  0.00  0.00    +0.242 C 
ATOM     34  N   ALA A   6     -10.889  -1.335  25.519  0.00  0.00    -0.298 N 
ATOM     35  H   ALA A   6     -10.709  -0.924  26.457  0.00  0.00    +0.150 HD
ATOM     36  O   CYS A   5     -11.034  -0.855  23.336  0.00  0.00    -0.273 OA
BRANCH  34  37
ATOM     37  CA  ALA A   6     -10.855  -2.784  25.370  0.00  0.00    +0.137 C 
ATOM     38  CB  ALA A   6     -10.250  -3.432  26.641  0.00  0.00    +0.030 C 
BRANCH  37  39
ATOM     39  C   ALA A   6     -12.269  -3.347  25.110  0.00  0.00    +0.227 C 
ATOM     40  O   ALA A   6     -13.271  -2.783  25.538  0.00  0.00    -0.286 OA
ENDBRANCH  37  39
ENDBRANCH  34  37
ENDBRANCH  32  33
BRANCH  32  41
ATOM     41  CB  CYS A   5     -13.129   0.926  24.688  0.00  0.00    +0.098 C 
ATOM     42  SG  CYS A   5     -13.975   2.113  25.730  0.00  0.00    -0.080 S 
ENDBRANCH  32  41
ENDBRANCH  30  32
ENDBRANCH  27  28
BRANCH  27  43
ATOM     43  CB  VAL A   4      -7.985   3.345  23.486  0.00  0.00    +0.027 C 
ATOM     44  CG2 VAL A   4      -7.764   1.788  23.330  0.00  0.00    +0.002 C 
ATOM     45  CG1 VAL A   4      -7.243   4.090  22.375  0.00  0.00    +0.002 C 
ENDBRANCH  27  43
ENDBRANCH  24  27
ENDBRANCH   1  23
BRANCH   1  46
ATOM     46  CB  SER A   3     -11.391   7.849  24.224  0.00  0.00    +0.166 C 
BRANCH  46  47
ATOM     47  OG  SER A   3     -12.477   8.419  23.515  0.00  0.00    -0.380 OA
ATOM     48  H   SER A   3     -13.222   8.597  24.142  0.00  0.00    +0.211 HD
ENDBRANCH  46  47
ENDBRANCH   1  46
TORSDOF 19
REMARK  Name = ../refined-set-2016/2bak/2bak_pocket.pdb
REMARK  247 active torsions:
REMARK  status: ('A' for Active; 'I' for Inactive)
REMARK    1  A    between atoms: _2  and  _3
REMARK    2  A    between atoms: _8  and  _10
REMARK    3  A    between atoms: _10  and  _11
REMARK    4  A    between atoms: _10  and  _13
REMARK    5  A    between atoms: _16  and  _18
REMARK    6  A    between atoms: _18  and  _19
REMARK    7  A    between atoms: _21  and  _23
REMARK    8  A    between atoms: _23  and  _24
REMARK    9  A    between atoms: _23  and  _26
REMARK   10  A    between atoms: _26  and  _27
REMARK   11  A    between atoms: _29  and  _31
REMARK   12  A    between atoms: _31  and  _32
REMARK   13  A    between atoms: _34  and  _36
REMARK   14  A    between atoms: _36  and  _37
REMARK   15  A    between atoms: _36  and  _39
REMARK   16  A    between atoms: _39  and  _40
REMARK   17  A    between atoms: _45  and  _46
REMARK   18  A    between atoms: _48  and  _50
REMARK   19  A    between atoms: _50  and  _51
REMARK   20  A    between atoms: _53  and  _55
REMARK   21  A    between atoms: _55  and  _56
REMARK   22  A    between atoms: _55  and  _58
REMARK   23  A    between atoms: _58  and  _59
REMARK   24  A    between atoms: _61  and  _63
REMARK   25  A    between atoms: _63  and  _64
REMARK   26  A    between atoms: _63  and  _66
REMARK   27  A    between atoms: _69  and  _71
REMARK   28  A    between atoms: _71  and  _72
REMARK   29  A    between atoms: _71  and  _74
REMARK   30  A    between atoms: _76  and  _78
REMARK   31  A    between atoms: _78  and  _79
REMARK   32  A    between atoms: _82  and  _84
REMARK   33  A    between atoms: _84  and  _85
REMARK   34  A    between atoms: _84  and  _87
REMARK   35  A    between atoms: _87  and  _88
REMARK   36  A    between atoms: _88  and  _89
REMARK   37  A    between atoms: _89  and  _90
REMARK   38  A    between atoms: _99  and  _101
REMARK   39  A    between atoms: _101  and  _102
REMARK   40  A    between atoms: _101  and  _104
REMARK   41  A    between atoms: _107  and  _109
REMARK   42  A    between atoms: _109  and  _110
REMARK   43  A    between atoms: _113  and  _115
REMARK   44  A    between atoms: _115  and  _116
REMARK   45  A    between atoms: _115  and  _118
REMARK   46  A    between atoms: _121  and  _123
REMARK   47  A    between atoms: _123  and  _124
REMARK   48  A    between atoms: _123  and  _126
REMARK   49  A    between atoms: _126  and  _127
REMARK   50  A    between atoms: _127  and  _128
REMARK   51  A    between atoms: _128  and  _129
REMARK   52  A    between atoms: _129  and  _130
REMARK   53  A    between atoms: _134  and  _136
REMARK   54  A    between atoms: _136  and  _137
REMARK   55  A    between atoms: _136  and  _139
REMARK   56  A    between atoms: _139  and  _140
REMARK   57  A    between atoms: _140  and  _141
REMARK   58  A    between atoms: _141  and  _142
REMARK   59  A    between atoms: _142  and  _143
REMARK   60  A    between atoms: _147  and  _149
REMARK   61  A    between atoms: _149  and  _150
REMARK   62  A    between atoms: _149  and  _152
REMARK   63  A    between atoms: _152  and  _153
REMARK   64  A    between atoms: _156  and  _158
REMARK   65  A    between atoms: _158  and  _159
REMARK   66  A    between atoms: _158  and  _161
REMARK   67  A    between atoms: _161  and  _162
REMARK   68  A    between atoms: _162  and  _163
REMARK   69  A    between atoms: _163  and  _164
REMARK   70  A    between atoms: _173  and  _175
REMARK   71  A    between atoms: _175  and  _176
REMARK   72  A    between atoms: _175  and  _178
REMARK   73  A    between atoms: _178  and  _179
REMARK   74  A    between atoms: _179  and  _180
REMARK   75  A    between atoms: _180  and  _181
REMARK   76  A    between atoms: _190  and  _192
REMARK   77  A    between atoms: _192  and  _193
REMARK   78  A    between atoms: _192  and  _195
REMARK   79  A    between atoms: _195  and  _196
REMARK   80  A    between atoms: _196  and  _197
REMARK   81  A    between atoms: _200  and  _202
REMARK   82  A    between atoms: _202  and  _203
REMARK   83  A    between atoms: _202  and  _205
REMARK   84  A    between atoms: _205  and  _206
REMARK   85  A    between atoms: _209  and  _211
REMARK   86  A    between atoms: _211  and  _212
REMARK   87  A    between atoms: _211  and  _214
REMARK   88  A    between atoms: _214  and  _215
REMARK   89  A    between atoms: _218  and  _220
REMARK   90  A    between atoms: _220  and  _221
REMARK   91  A    between atoms: _220  and  _223
REMARK   92  A    between atoms: _223  and  _224
REMARK   93  A    between atoms: _227  and  _229
REMARK   94  A    between atoms: _229  and  _230
REMARK   95  A    between atoms: _229  and  _232
REMARK   96  A    between atoms: _232  and  _233
REMARK   97  A    between atoms: _233  and  _234
REMARK   98  A    between atoms: _236  and  _238
REMARK   99  A    between atoms: _238  and  _239
REMARK  100  A    between atoms: _238  and  _241
REMARK  101  A    between atoms: _241  and  _242
REMARK  102  A    between atoms: _247  and  _249
REMARK  103  A    between atoms: _249  and  _250
REMARK  104  A    between atoms: _249  and  _252
REMARK  105  A    between atoms: _255  and  _257
REMARK  106  A    between atoms: _257  and  _258
REMARK  107  A    between atoms: _257  and  _260
REMARK  108  A    between atoms: _260  and  _261
REMARK  109  A    between atoms: _264  and  _266
REMARK  110  A    between atoms: _266  and  _267
REMARK  111  A    between atoms: _269  and  _271
REMARK  112  A    between atoms: _271  and  _272
REMARK  113  A    between atoms: _271  and  _274
REMARK  114  A    between atoms: _274  and  _275
REMARK  115  A    between atoms: _278  and  _280
REMARK  116  A    between atoms: _280  and  _281
REMARK  117  A    between atoms: _280  and  _283
REMARK  118  A    between atoms: _283  and  _284
REMARK  119  A    between atoms: _287  and  _289
REMARK  120  A    between atoms: _289  and  _290
REMARK  121  A    between atoms: _289  and  _292
REMARK  122  A    between atoms: _292  and  _293
REMARK  123  A    between atoms: _296  and  _298
REMARK  124  A    between atoms: _298  and  _299
REMARK  125  A    between atoms: _298  and  _301
REMARK  126  A    between atoms: _301  and  _302
REMARK  127  A    between atoms: _307  and  _308
REMARK  128  A    between atoms: _310  and  _312
REMARK  129  A    between atoms: _312  and  _313
REMARK  130  A    between atoms: _312  and  _315
REMARK  131  A    between atoms: _315  and  _316
REMARK  132  A    between atoms: _319  and  _321
REMARK  133  A    between atoms: _321  and  _322
REMARK  134  A    between atoms: _321  and  _324
REMARK  135  A    between atoms: _327  and  _329
REMARK  136  A    between atoms: _329  and  _330
REMARK  137  A    between atoms: _329  and  _332
REMARK  138  A    between atoms: _332  and  _333
REMARK  139  A    between atoms: _336  and  _338
REMARK  140  A    between atoms: _338  and  _339
REMARK  141  A    between atoms: _338  and  _341
REMARK  142  A    between atoms: _341  and  _342
REMARK  143  A    between atoms: _347  and  _349
REMARK  144  A    between atoms: _349  and  _350
REMARK  145  A    between atoms: _349  and  _352
REMARK  146  A    between atoms: _352  and  _353
REMARK  147  A    between atoms: _356  and  _358
REMARK  148  A    between atoms: _358  and  _359
REMARK  149  A    between atoms: _358  and  _361
REMARK  150  A    between atoms: _361  and  _362
REMARK  151  A    between atoms: _362  and  _363
REMARK  152  A    between atoms: _365  and  _367
REMARK  153  A    between atoms: _367  and  _368
REMARK  154  A    between atoms: _370  and  _372
REMARK  155  A    between atoms: _372  and  _373
REMARK  156  A    between atoms: _376  and  _378
REMARK  157  A    between atoms: _378  and  _379
REMARK  158  A    between atoms: _378  and  _381
REMARK  159  A    between atoms: _381  and  _382
REMARK  160  A    between atoms: _385  and  _387
REMARK  161  A    between atoms: _387  and  _388
REMARK  162  A    between atoms: _387  and  _390
REMARK  163  A    between atoms: _390  and  _391
REMARK  164  A    between atoms: _396  and  _398
REMARK  165  A    between atoms: _398  and  _399
REMARK  166  A    between atoms: _398  and  _401
REMARK  167  A    between atoms: _401  and  _402
REMARK  168  A    between atoms: _407  and  _409
REMARK  169  A    between atoms: _409  and  _410
REMARK  170  A    between atoms: _412  and  _414
REMARK  171  A    between atoms: _414  and  _415
REMARK  172  A    between atoms: _414  and  _417
REMARK  173  A    between atoms: _417  and  _418
REMARK  174  A    between atoms: _421  and  _423
REMARK  175  A    between atoms: _423  and  _424
REMARK  176  A    between atoms: _423  and  _426
REMARK  177  A    between atoms: _426  and  _427
REMARK  178  A    between atoms: _432  and  _433
REMARK  179  A    between atoms: _435  and  _437
REMARK  180  A    between atoms: _437  and  _438
REMARK  181  A    between atoms: _437  and  _440
REMARK  182  A    between atoms: _440  and  _441
REMARK  183  A    between atoms: _444  and  _446
REMARK  184  A    between atoms: _446  and  _447
REMARK  185  A    between atoms: _446  and  _449
REMARK  186  A    between atoms: _449  and  _450
REMARK  187  A    between atoms: _453  and  _455
REMARK  188  A    between atoms: _455  and  _456
REMARK  189  A    between atoms: _455  and  _458
REMARK  190  A    between atoms: _458  and  _459
REMARK  191  A    between atoms: _462  and  _464
REMARK  192  A    between atoms: _464  and  _465
REMARK  193  A    between atoms: _464  and  _467
REMARK  194  A    between atoms: _467  and  _468
REMARK  195  A    between atoms: _473  and  _475
REMARK  196  A    between atoms: _475  and  _476
REMARK  197  A    between atoms: _475  and  _478
REMARK  198  A    between atoms: _478  and  _479
REMARK  199  A    between atoms: _479  and  _480
REMARK  200  A    between atoms: _480  and  _481
REMARK  201  A    between atoms: _490  and  _492
REMARK  202  A    between atoms: _492  and  _493
REMARK  203  A    between atoms: _492  and  _495
REMARK  204  A    between atoms: _495  and  _496
REMARK  205  A    between atoms: _499  and  _501
REMARK  206  A    between atoms: _501  and  _502
REMARK  207  A    between atoms: _501  and  _504
REMARK  208  A    between atoms: _504  and  _505
REMARK  209  A    between atoms: _508  and  _510
REMARK  210  A    between atoms: _510  and  _511
REMARK  211  A    between atoms: _510  and  _513
REMARK  212  A    between atoms: _513  and  _514
REMARK  213  A    between atoms: _516  and  _518
REMARK  214  A    between atoms: _518  and  _519
REMARK  215  A    between atoms: _518  and  _521
REMARK  216  A    between atoms: _521  and  _522
REMARK  217  A    between atoms: _527  and  _529
REMARK  218  A    between atoms: _529  and  _530
REMARK  219  A    between atoms: _533  and  _535
REMARK  220  A    between atoms: _535  and  _536
REMARK  221  A    between atoms: _535  and  _538
REMARK  222  A    between atoms: _538  and  _539
REMARK  223  A    between atoms: _539  and  _540
REMARK  224  A    between atoms: _540  and  _541
REMARK  225  A    between atoms: _541  and  _542
REMARK  226  A    between atoms: _546  and  _548
REMARK  227  A    between atoms: _548  and  _549
REMARK  228  A    between atoms: _548  and  _551
REMARK  229  A    between atoms: _551  and  _552
REMARK  230  A    between atoms: _555  and  _557
REMARK  231  A    between atoms: _557  and  _558
REMARK  232  A    between atoms: _557  and  _560
REMARK  233  A    between atoms: _560  and  _561
REMARK  234  A    between atoms: _564  and  _566
REMARK  235  A    between atoms: _566  and  _567
REMARK  236  A    between atoms: _566  and  _569
REMARK  237  A    between atoms: _569  and  _570
REMARK  238  A    between atoms: _573  and  _575
REMARK  239  A    between atoms: _575  and  _576
REMARK  240  A    between atoms: _575  and  _578
REMARK  241  A    between atoms: _578  and  _579
REMARK  242  A    between atoms: _585  and  _587
REMARK  243  A    between atoms: _587  and  _588
REMARK  244  A    between atoms: _590  and  _592
REMARK  245  A    between atoms: _592  and  _593
REMARK  246  A    between atoms: _592  and  _595
REMARK  247  A    between atoms: _595  and  _596
REMARK                            x       y       z     vdW  Elec       q    Type
REMARK                         _______ _______ _______ _____ _____    ______ ____
ROOT
ATOM      1  CA  VAL A   4     -11.167  -0.049  19.766  0.00  0.00    +0.149 C 
ENDROOT
BRANCH   1   2
ATOM      2  C   VAL A   4     -10.844   1.407  20.092  0.00  0.00    +0.241 C 
ATOM      3  O   VAL A   4     -10.995   1.827  21.238  0.00  0.00    -0.273 OA
ATOM      4  N   LYS A   5     -10.379   2.154  19.091  0.00  0.00    -0.297 N 
ATOM      5  H   LYS A   5     -10.257   1.719  18.154  0.00  0.00    +0.150 HD
BRANCH   4   6
ATOM      6  CA  LYS A   5     -10.032   3.574  19.267  0.00  0.00    +0.149 C 
BRANCH   6   7
ATOM      7  C   LYS A   5     -11.008   4.440  18.493  0.00  0.00    +0.241 C 
ATOM      8  N   LYS A   6     -11.691   5.343  19.208  0.00  0.00    -0.297 N 
ATOM      9  H   LYS A   6     -11.625   5.295  20.245  0.00  0.00    +0.150 HD
ATOM     10  O   LYS A   5     -11.145   4.261  17.283  0.00  0.00    -0.273 OA
BRANCH   8  11
ATOM     11  CA  LYS A   6     -12.524   6.392  18.622  0.00  0.00    +0.149 C 
BRANCH  11  12
ATOM     12  C   LYS A   6     -11.721   7.668  18.338  0.00  0.00    +0.241 C 
ATOM     13  O   LYS A   6     -11.235   8.296  19.248  0.00  0.00    -0.273 OA
ATOM     14  N   LEU A   7     -11.548   8.040  17.077  0.00  0.00    -0.298 N 
ATOM     15  H   LEU A   7     -11.953   7.479  16.301  0.00  0.00    +0.150 HD
BRANCH  14  16
ATOM     16  CA  LEU A   7     -10.777   9.253  16.795  0.00  0.00    +0.137 C 
BRANCH  16  17
ATOM     17  C   LEU A   7     -11.477  10.496  17.352  0.00  0.00    +0.227 C 
ATOM     18  O   LEU A   7     -12.708  10.611  17.321  0.00  0.00    -0.286 OA
ENDBRANCH  16  17
BRANCH  16  19
ATOM     19  CB  LEU A   7     -10.454   9.399  15.296  0.00  0.00    +0.028 C 
BRANCH  19  20
ATOM     20  CG  LEU A   7      -9.521   8.337  14.710  0.00  0.00    +0.002 C 
ATOM     21  CD2 LEU A   7      -8.215   8.204  15.505  0.00  0.00    +0.000 C 
ATOM     22  CD1 LEU A   7      -9.178   8.626  13.250  0.00  0.00    +0.000 C 
ENDBRANCH  19  20
ENDBRANCH  16  19
ENDBRANCH  14  16
ENDBRANCH  11  12
BRANCH  11  23
ATOM     23  CB  LYS A   6     -13.677   6.749  19.569  0.00  0.00    +0.029 C 
BRANCH  23  24
ATOM     24  CG  LYS A   6     -14.600   7.852  18.994  0.00  0.00    +0.000 C 
BRANCH  24  25
ATOM     25  CD  LYS A   6     -15.845   8.098  19.857  0.00  0.00    -0.024 C 
BRANCH  25  26
ATOM     26  CE  LYS A   6     -16.731   9.181  19.226  0.00  0.00    -0.086 C 
BRANCH  26  27
ATOM     27  NZ  LYS A   6     -17.614   9.866  20.187  0.00  0.00    +0.380 N 
ATOM     28  HZ1 LYS A   6     -17.036  10.328  20.918  0.00  0.00    -0.089 HD
ATOM     29  HZ2 LYS A   6     -18.247   9.170  20.631  0.00  0.00    -0.089 HD
ATOM     30  HZ3 LYS A   6     -18.180  10.581  19.687  0.00  0.00    -0.089 HD
ENDBRANCH  26  27
ENDBRANCH  25  26
ENDBRANCH  24  25
ENDBRANCH  23  24
ENDBRANCH  11  23
ENDBRANCH   8  11
ENDBRANCH   6   7
BRANCH   6  31
ATOM     31  CB  LYS A   5      -8.604   3.886  18.780  0.00  0.00    +0.029 C 
BRANCH  31  32
ATOM     32  CG  LYS A   5      -8.317   5.375  18.587  0.00  0.00    +0.000 C 
BRANCH  32  33
ATOM     33  CD  LYS A   5      -6.809   5.716  18.534  0.00  0.00    -0.024 C 
BRANCH  33  34
ATOM     34  CE  LYS A   5      -6.202   5.565  17.157  0.00  0.00    -0.086 C 
BRANCH  34  35
ATOM     35  NZ  LYS A   5      -4.765   6.063  17.151  0.00  0.00    +0.380 N 
ATOM     36  HZ1 LYS A   5      -4.205   5.510  17.830  0.00  0.00    -0.089 HD
ATOM     37  HZ2 LYS A   5      -4.746   7.067  17.421  0.00  0.00    -0.089 HD
ATOM     38  HZ3 LYS A   5      -4.365   5.952  16.198  0.00  0.00    -0.089 HD
ENDBRANCH  34  35
ENDBRANCH  33  34
ENDBRANCH  32  33
ENDBRANCH  31  32
ENDBRANCH   6  31
ENDBRANCH   4   6
ENDBRANCH   1   2
BRANCH   1  40
ATOM     39  C   ALA A   3      -9.553  -1.786  20.285  0.00  0.00    +0.241 C 
ATOM     40  N   VAL A   4     -10.410  -0.864  20.686  0.00  0.00    -0.297 N 
ATOM     41  H   VAL A   4     -10.545  -0.719  21.707  0.00  0.00    +0.150 HD
ATOM     42  O   ALA A   3      -9.248  -1.959  19.109  0.00  0.00    -0.273 OA
BRANCH  39  43
ATOM     43  CA  ALA A   3      -8.942  -2.646  21.396  0.00  0.00    +0.149 C 
ATOM     44  CB  ALA A   3      -7.517  -2.170  21.716  0.00  0.00    +0.031 C 
BRANCH  43  47
ATOM     45  C   VAL A   2      -9.504  -4.996  21.684  0.00  0.00    +0.241 C 
ATOM     46  O   VAL A   2      -9.993  -4.818  22.810  0.00  0.00    -0.273 OA
ATOM     47  N   ALA A   3      -8.931  -4.038  20.978  0.00  0.00    -0.297 N 
ATOM     48  H   ALA A   3      -8.454  -4.289  20.089  0.00  0.00    +0.150 HD
BRANCH  45  49
ATOM     49  CA  VAL A   2      -9.487  -6.377  21.026  0.00  0.00    +0.148 C 
BRANCH  49  51
ATOM     50  C   ARG A   1      -9.169  -8.553  22.120  0.00  0.00    +0.238 C 
ATOM     51  N   VAL A   2      -9.886  -7.443  21.949  0.00  0.00    -0.297 N 
ATOM     52  H   VAL A   2     -10.765  -7.328  22.493  0.00  0.00    +0.150 HD
ATOM     53  O   ARG A   1      -8.038  -8.710  21.657  0.00  0.00    -0.274 OA
BRANCH  50  54
ATOM     54  CA  ARG A   1      -9.826  -9.663  22.917  0.00  0.00    +0.145 C 
BRANCH  54  55
ATOM     55  N   ARG A   1      -9.748 -10.852  22.099  0.00  0.00    -0.238 NA
ATOM     56  H   ARG A   1      -8.843 -11.362  22.060  0.00  0.00    +0.142 HD
ENDBRANCH  54  55
BRANCH  54  57
ATOM     57  CB  ARG A   1      -9.119  -9.908  24.266  0.00  0.00    +0.030 C 
BRANCH  57  58
ATOM     58  CG  ARG A   1      -9.588  -8.964  25.364  0.00  0.00    +0.045 C 
BRANCH  58  59
ATOM     59  CD  ARG A   1      -9.753  -9.579  26.735  0.00  0.00    +0.174 C 
BRANCH  59  60
ATOM     60  NE  ARG A   1      -8.467  -9.975  27.314  0.00  0.00    -0.265 N 
ATOM     61  CZ  ARG A   1      -7.799  -9.319  28.278  0.00  0.00    +0.342 C 
ATOM     62  NH2 ARG A   1      -8.266  -8.190  28.826  0.00  0.00    -0.292 N 
ATOM     63 HH21 ARG A   1      -7.721  -7.709  29.570  0.00  0.00    +0.255 HD
ATOM     64 HH22 ARG A   1      -9.173  -7.794  28.507  0.00  0.00    +0.255 HD
ATOM     65  NH1 ARG A   1      -6.635  -9.807  28.699  0.00  0.00    -0.292 N 
ATOM     66 HH11 ARG A   1      -6.103  -9.314  29.444  0.00  0.00    +0.255 HD
ATOM     67 HH12 ARG A   1      -6.257 -10.682  28.283  0.00  0.00    +0.255 HD
ATOM     68  HE  ARG A   1      -8.031 -10.844  26.945  0.00  0.00    +0.259 HD
ENDBRANCH  59  60
ENDBRANCH  58  59
ENDBRANCH  57  58
ENDBRANCH  54  57
ENDBRANCH  50  54
ENDBRANCH  49  51
BRANCH  49  69
ATOM     69  CB  VAL A   2     -10.380  -6.347  19.748  0.00  0.00    +0.027 C 
ATOM     70  CG2 VAL A   2     -11.826  -5.969  20.085  0.00  0.00    +0.002 C 
ATOM     71  CG1 VAL A   2     -10.338  -7.686  19.033  0.00  0.00    +0.002 C 
ENDBRANCH  49  69
ENDBRANCH  45  49
ENDBRANCH  43  47
ENDBRANCH  39  43
ENDBRANCH   1  40
BRANCH   1  72
ATOM     72  CB  VAL A   4     -12.714  -0.323  19.874  0.00  0.00    +0.027 C 
ATOM     73  CG2 VAL A   4     -13.028  -1.817  19.750  0.00  0.00    +0.002 C 
ATOM     74  CG1 VAL A   4     -13.457   0.435  18.806  0.00  0.00    +0.002 C 
ENDBRANCH   1  72
TORSDOF 32
REMARK  Name = ../refined-set-2016/2bak/2bak_pocket.pdb
REMARK  247 active torsions:
REMARK  status: ('A' for Active; 'I' for Inactive)
REMARK    1  A    between atoms: _2  and  _3
REMARK    2  A    between atoms: _8  and  _10
REMARK    3  A    between atoms: _10  and  _11
REMARK    4  A    between atoms: _10  and  _13
REMARK    5  A    between atoms: _16  and  _18
REMARK    6  A    between atoms: _18  and  _19
REMARK    7  A    between atoms: _21  and  _23
REMARK    8  A    between atoms: _23  and  _24
REMARK    9  A    between atoms: _23  and  _26
REMARK   10  A    between atoms: _26  and  _27
REMARK   11  A    between atoms: _29  and  _31
REMARK   12  A    between atoms: _31  and  _32
REMARK   13  A    between atoms: _34  and  _36
REMARK   14  A    between atoms: _36  and  _37
REMARK   15  A    between atoms: _36  and  _39
REMARK   16  A    between atoms: _39  and  _40
REMARK   17  A    between atoms: _45  and  _46
REMARK   18  A    between atoms: _48  and  _50
REMARK   19  A    between atoms: _50  and  _51
REMARK   20  A    between atoms: _53  and  _55
REMARK   21  A    between atoms: _55  and  _56
REMARK   22  A    between atoms: _55  and  _58
REMARK   23  A    between atoms: _58  and  _59
REMARK   24  A    between atoms: _61  and  _63
REMARK   25  A    between atoms: _63  and  _64
REMARK   26  A    between atoms: _63  and  _66
REMARK   27  A    between atoms: _69  and  _71
REMARK   28  A    between atoms: _71  and  _72
REMARK   29  A    between atoms: _71  and  _74
REMARK   30  A    between atoms: _76  and  _78
REMARK   31  A    between atoms: _78  and  _79
REMARK   32  A    between atoms: _82  and  _84
REMARK   33  A    between atoms: _84  and  _85
REMARK   34  A    between atoms: _84  and  _87
REMARK   35  A    between atoms: _87  and  _88
REMARK   36  A    between atoms: _88  and  _89
REMARK   37  A    between atoms: _89  and  _90
REMARK   38  A    between atoms: _99  and  _101
REMARK   39  A    between atoms: _101  and  _102
REMARK   40  A    between atoms: _101  and  _104
REMARK   41  A    between atoms: _107  and  _109
REMARK   42  A    between atoms: _109  and  _110
REMARK   43  A    between atoms: _113  and  _115
REMARK   44  A    between atoms: _115  and  _116
REMARK   45  A    between atoms: _115  and  _118
REMARK   46  A    between atoms: _121  and  _123
REMARK   47  A    between atoms: _123  and  _124
REMARK   48  A    between atoms: _123  and  _126
REMARK   49  A    between atoms: _126  and  _127
REMARK   50  A    between atoms: _127  and  _128
REMARK   51  A    between atoms: _128  and  _129
REMARK   52  A    between atoms: _129  and  _130
REMARK   53  A    between atoms: _134  and  _136
REMARK   54  A    between atoms: _136  and  _137
REMARK   55  A    between atoms: _136  and  _139
REMARK   56  A    between atoms: _139  and  _140
REMARK   57  A    between atoms: _140  and  _141
REMARK   58  A    between atoms: _141  and  _142
REMARK   59  A    between atoms: _142  and  _143
REMARK   60  A    between atoms: _147  and  _149
REMARK   61  A    between atoms: _149  and  _150
REMARK   62  A    between atoms: _149  and  _152
REMARK   63  A    between atoms: _152  and  _153
REMARK   64  A    between atoms: _156  and  _158
REMARK   65  A    between atoms: _158  and  _159
REMARK   66  A    between atoms: _158  and  _161
REMARK   67  A    between atoms: _161  and  _162
REMARK   68  A    between atoms: _162  and  _163
REMARK   69  A    between atoms: _163  and  _164
REMARK   70  A    between atoms: _173  and  _175
REMARK   71  A    between atoms: _175  and  _176
REMARK   72  A    between atoms: _175  and  _178
REMARK   73  A    between atoms: _178  and  _179
REMARK   74  A    between atoms: _179  and  _180
REMARK   75  A    between atoms: _180  and  _181
REMARK   76  A    between atoms: _190  and  _192
REMARK   77  A    between atoms: _192  and  _193
REMARK   78  A    between atoms: _192  and  _195
REMARK   79  A    between atoms: _195  and  _196
REMARK   80  A    between atoms: _196  and  _197
REMARK   81  A    between atoms: _200  and  _202
REMARK   82  A    between atoms: _202  and  _203
REMARK   83  A    between atoms: _202  and  _205
REMARK   84  A    between atoms: _205  and  _206
REMARK   85  A    between atoms: _209  and  _211
REMARK   86  A    between atoms: _211  and  _212
REMARK   87  A    between atoms: _211  and  _214
REMARK   88  A    between atoms: _214  and  _215
REMARK   89  A    between atoms: _218  and  _220
REMARK   90  A    between atoms: _220  and  _221
REMARK   91  A    between atoms: _220  and  _223
REMARK   92  A    between atoms: _223  and  _224
REMARK   93  A    between atoms: _227  and  _229
REMARK   94  A    between atoms: _229  and  _230
REMARK   95  A    between atoms: _229  and  _232
REMARK   96  A    between atoms: _232  and  _233
REMARK   97  A    between atoms: _233  and  _234
REMARK   98  A    between atoms: _236  and  _238
REMARK   99  A    between atoms: _238  and  _239
REMARK  100  A    between atoms: _238  and  _241
REMARK  101  A    between atoms: _241  and  _242
REMARK  102  A    between atoms: _247  and  _249
REMARK  103  A    between atoms: _249  and  _250
REMARK  104  A    between atoms: _249  and  _252
REMARK  105  A    between atoms: _255  and  _257
REMARK  106  A    between atoms: _257  and  _258
REMARK  107  A    between atoms: _257  and  _260
REMARK  108  A    between atoms: _260  and  _261
REMARK  109  A    between atoms: _264  and  _266
REMARK  110  A    between atoms: _266  and  _267
REMARK  111  A    between atoms: _269  and  _271
REMARK  112  A    between atoms: _271  and  _272
REMARK  113  A    between atoms: _271  and  _274
REMARK  114  A    between atoms: _274  and  _275
REMARK  115  A    between atoms: _278  and  _280
REMARK  116  A    between atoms: _280  and  _281
REMARK  117  A    between atoms: _280  and  _283
REMARK  118  A    between atoms: _283  and  _284
REMARK  119  A    between atoms: _287  and  _289
REMARK  120  A    between atoms: _289  and  _290
REMARK  121  A    between atoms: _289  and  _292
REMARK  122  A    between atoms: _292  and  _293
REMARK  123  A    between atoms: _296  and  _298
REMARK  124  A    between atoms: _298  and  _299
REMARK  125  A    between atoms: _298  and  _301
REMARK  126  A    between atoms: _301  and  _302
REMARK  127  A    between atoms: _307  and  _308
REMARK  128  A    between atoms: _310  and  _312
REMARK  129  A    between atoms: _312  and  _313
REMARK  130  A    between atoms: _312  and  _315
REMARK  131  A    between atoms: _315  and  _316
REMARK  132  A    between atoms: _319  and  _321
REMARK  133  A    between atoms: _321  and  _322
REMARK  134  A    between atoms: _321  and  _324
REMARK  135  A    between atoms: _327  and  _329
REMARK  136  A    between atoms: _329  and  _330
REMARK  137  A    between atoms: _329  and  _332
REMARK  138  A    between atoms: _332  and  _333
REMARK  139  A    between atoms: _336  and  _338
REMARK  140  A    between atoms: _338  and  _339
REMARK  141  A    between atoms: _338  and  _341
REMARK  142  A    between atoms: _341  and  _342
REMARK  143  A    between atoms: _347  and  _349
REMARK  144  A    between atoms: _349  and  _350
REMARK  145  A    between atoms: _349  and  _352
REMARK  146  A    between atoms: _352  and  _353
REMARK  147  A    between atoms: _356  and  _358
REMARK  148  A    between atoms: _358  and  _359
REMARK  149  A    between atoms: _358  and  _361
REMARK  150  A    between atoms: _361  and  _362
REMARK  151  A    between atoms: _362  and  _363
REMARK  152  A    between atoms: _365  and  _367
REMARK  153  A    between atoms: _367  and  _368
REMARK  154  A    between atoms: _370  and  _372
REMARK  155  A    between atoms: _372  and  _373
REMARK  156  A    between atoms: _376  and  _378
REMARK  157  A    between atoms: _378  and  _379
REMARK  158  A    between atoms: _378  and  _381
REMARK  159  A    between atoms: _381  and  _382
REMARK  160  A    between atoms: _385  and  _387
REMARK  161  A    between atoms: _387  and  _388
REMARK  162  A    between atoms: _387  and  _390
REMARK  163  A    between atoms: _390  and  _391
REMARK  164  A    between atoms: _396  and  _398
REMARK  165  A    between atoms: _398  and  _399
REMARK  166  A    between atoms: _398  and  _401
REMARK  167  A    between atoms: _401  and  _402
REMARK  168  A    between atoms: _407  and  _409
REMARK  169  A    between atoms: _409  and  _410
REMARK  170  A    between atoms: _412  and  _414
REMARK  171  A    between atoms: _414  and  _415
REMARK  172  A    between atoms: _414  and  _417
REMARK  173  A    between atoms: _417  and  _418
REMARK  174  A    between atoms: _421  and  _423
REMARK  175  A    between atoms: _423  and  _424
REMARK  176  A    between atoms: _423  and  _426
REMARK  177  A    between atoms: _426  and  _427
REMARK  178  A    between atoms: _432  and  _433
REMARK  179  A    between atoms: _435  and  _437
REMARK  180  A    between atoms: _437  and  _438
REMARK  181  A    between atoms: _437  and  _440
REMARK  182  A    between atoms: _440  and  _441
REMARK  183  A    between atoms: _444  and  _446
REMARK  184  A    between atoms: _446  and  _447
REMARK  185  A    between atoms: _446  and  _449
REMARK  186  A    between atoms: _449  and  _450
REMARK  187  A    between atoms: _453  and  _455
REMARK  188  A    between atoms: _455  and  _456
REMARK  189  A    between atoms: _455  and  _458
REMARK  190  A    between atoms: _458  and  _459
REMARK  191  A    between atoms: _462  and  _464
REMARK  192  A    between atoms: _464  and  _465
REMARK  193  A    between atoms: _464  and  _467
REMARK  194  A    between atoms: _467  and  _468
REMARK  195  A    between atoms: _473  and  _475
REMARK  196  A    between atoms: _475  and  _476
REMARK  197  A    between atoms: _475  and  _478
REMARK  198  A    between atoms: _478  and  _479
REMARK  199  A    between atoms: _479  and  _480
REMARK  200  A    between atoms: _480  and  _481
REMARK  201  A    between atoms: _490  and  _492
REMARK  202  A    between atoms: _492  and  _493
REMARK  203  A    between atoms: _492  and  _495
REMARK  204  A    between atoms: _495  and  _496
REMARK  205  A    between atoms: _499  and  _501
REMARK  206  A    between atoms: _501  and  _502
REMARK  207  A    between atoms: _501  and  _504
REMARK  208  A    between atoms: _504  and  _505
REMARK  209  A    between atoms: _508  and  _510
REMARK  210  A    between atoms: _510  and  _511
REMARK  211  A    between atoms: _510  and  _513
REMARK  212  A    between atoms: _513  and  _514
REMARK  213  A    between atoms: _516  and  _518
REMARK  214  A    between atoms: _518  and  _519
REMARK  215  A    between atoms: _518  and  _521
REMARK  216  A    between atoms: _521  and  _522
REMARK  217  A    between atoms: _527  and  _529
REMARK  218  A    between atoms: _529  and  _530
REMARK  219  A    between atoms: _533  and  _535
REMARK  220  A    between atoms: _535  and  _536
REMARK  221  A    between atoms: _535  and  _538
REMARK  222  A    between atoms: _538  and  _539
REMARK  223  A    between atoms: _539  and  _540
REMARK  224  A    between atoms: _540  and  _541
REMARK  225  A    between atoms: _541  and  _542
REMARK  226  A    between atoms: _546  and  _548
REMARK  227  A    between atoms: _548  and  _549
REMARK  228  A    between atoms: _548  and  _551
REMARK  229  A    between atoms: _551  and  _552
REMARK  230  A    between atoms: _555  and  _557
REMARK  231  A    between atoms: _557  and  _558
REMARK  232  A    between atoms: _557  and  _560
REMARK  233  A    between atoms: _560  and  _561
REMARK  234  A    between atoms: _564  and  _566
REMARK  235  A    between atoms: _566  and  _567
REMARK  236  A    between atoms: _566  and  _569
REMARK  237  A    between atoms: _569  and  _570
REMARK  238  A    between atoms: _573  and  _575
REMARK  239  A    between atoms: _575  and  _576
REMARK  240  A    between atoms: _575  and  _578
REMARK  241  A    between atoms: _578  and  _579
REMARK  242  A    between atoms: _585  and  _587
REMARK  243  A    between atoms: _587  and  _588
REMARK  244  A    between atoms: _590  and  _592
REMARK  245  A    between atoms: _592  and  _593
REMARK  246  A    between atoms: _592  and  _595
REMARK  247  A    between atoms: _595  and  _596
REMARK                            x       y       z     vdW  Elec       q    Type
REMARK                         _______ _______ _______ _____ _____    ______ ____
ROOT
ATOM      1  NE  ARG A   1      -4.897  14.023  14.467  0.00  0.00    -0.265 N 
ATOM      2  CZ  ARG A   1      -4.969  14.984  15.407  0.00  0.00    +0.342 C 
ATOM      3  NH2 ARG A   1      -6.059  15.096  16.163  0.00  0.00    -0.292 N 
ATOM      4 HH21 ARG A   1      -6.114  15.839  16.889  0.00  0.00    +0.255 HD
ATOM      5 HH22 ARG A   1      -6.855  14.441  16.028  0.00  0.00    +0.255 HD
ATOM      6  NH1 ARG A   1      -3.971  15.857  15.587  0.00  0.00    -0.292 N 
ATOM      7 HH11 ARG A   1      -4.048  16.591  16.319  0.00  0.00    +0.255 HD
ATOM      8 HH12 ARG A   1      -3.118  15.801  14.995  0.00  0.00    +0.255 HD
ATOM      9  HE  ARG A   1      -5.720  13.398  14.350  0.00  0.00    +0.259 HD
ENDROOT
BRANCH   1  10
ATOM     10  CD  ARG A   1      -3.729  13.793  13.588  0.00  0.00    +0.174 C 
BRANCH  10  11
ATOM     11  CG  ARG A   1      -4.006  12.900  12.333  0.00  0.00    +0.045 C 
BRANCH  11  12
ATOM     12  CB  ARG A   1      -3.530  13.575  11.052  0.00  0.00    +0.029 C 
BRANCH  12  13
ATOM     13  CA  ARG A   1      -3.817  12.869   9.724  0.00  0.00    +0.133 C 
BRANCH  13  14
ATOM     14  N   ARG A   1      -4.326  13.828   8.743  0.00  0.00    -0.239 NA
ATOM     15  H   ARG A   1      -4.561  14.794   9.048  0.00  0.00    +0.142 HD
ENDBRANCH  13  14
BRANCH  13  16
ATOM     16  C   ARG A   1      -4.707  11.620   9.911  0.00  0.00    +0.224 C 
ATOM     17  O   ARG A   1      -4.209  10.526  10.091  0.00  0.00    -0.287 OA
ENDBRANCH  13  16
ENDBRANCH  12  13
ENDBRANCH  11  12
ENDBRANCH  10  11
ENDBRANCH   1  10
TORSDOF 6
REMARK  Name = ../refined-set-2016/2bak/2bak_pocket.pdb
REMARK  247 active torsions:
REMARK  status: ('A' for Active; 'I' for Inactive)
REMARK    1  A    between atoms: _2  and  _3
REMARK    2  A    between atoms: _8  and  _10
REMARK    3  A    between atoms: _10  and  _11
REMARK    4  A    between atoms: _10  and  _13
REMARK    5  A    between atoms: _16  and  _18
REMARK    6  A    between atoms: _18  and  _19
REMARK    7  A    between atoms: _21  and  _23
REMARK    8  A    between atoms: _23  and  _24
REMARK    9  A    between atoms: _23  and  _26
REMARK   10  A    between atoms: _26  and  _27
REMARK   11  A    between atoms: _29  and  _31
REMARK   12  A    between atoms: _31  and  _32
REMARK   13  A    between atoms: _34  and  _36
REMARK   14  A    between atoms: _36  and  _37
REMARK   15  A    between atoms: _36  and  _39
REMARK   16  A    between atoms: _39  and  _40
REMARK   17  A    between atoms: _45  and  _46
REMARK   18  A    between atoms: _48  and  _50
REMARK   19  A    between atoms: _50  and  _51
REMARK   20  A    between atoms: _53  and  _55
REMARK   21  A    between atoms: _55  and  _56
REMARK   22  A    between atoms: _55  and  _58
REMARK   23  A    between atoms: _58  and  _59
REMARK   24  A    between atoms: _61  and  _63
REMARK   25  A    between atoms: _63  and  _64
REMARK   26  A    between atoms: _63  and  _66
REMARK   27  A    between atoms: _69  and  _71
REMARK   28  A    between atoms: _71  and  _72
REMARK   29  A    between atoms: _71  and  _74
REMARK   30  A    between atoms: _76  and  _78
REMARK   31  A    between atoms: _78  and  _79
REMARK   32  A    between atoms: _82  and  _84
REMARK   33  A    between atoms: _84  and  _85
REMARK   34  A    between atoms: _84  and  _87
REMARK   35  A    between atoms: _87  and  _88
REMARK   36  A    between atoms: _88  and  _89
REMARK   37  A    between atoms: _89  and  _90
REMARK   38  A    between atoms: _99  and  _101
REMARK   39  A    between atoms: _101  and  _102
REMARK   40  A    between atoms: _101  and  _104
REMARK   41  A    between atoms: _107  and  _109
REMARK   42  A    between atoms: _109  and  _110
REMARK   43  A    between atoms: _113  and  _115
REMARK   44  A    between atoms: _115  and  _116
REMARK   45  A    between atoms: _115  and  _118
REMARK   46  A    between atoms: _121  and  _123
REMARK   47  A    between atoms: _123  and  _124
REMARK   48  A    between atoms: _123  and  _126
REMARK   49  A    between atoms: _126  and  _127
REMARK   50  A    between atoms: _127  and  _128
REMARK   51  A    between atoms: _128  and  _129
REMARK   52  A    between atoms: _129  and  _130
REMARK   53  A    between atoms: _134  and  _136
REMARK   54  A    between atoms: _136  and  _137
REMARK   55  A    between atoms: _136  and  _139
REMARK   56  A    between atoms: _139  and  _140
REMARK   57  A    between atoms: _140  and  _141
REMARK   58  A    between atoms: _141  and  _142
REMARK   59  A    between atoms: _142  and  _143
REMARK   60  A    between atoms: _147  and  _149
REMARK   61  A    between atoms: _149  and  _150
REMARK   62  A    between atoms: _149  and  _152
REMARK   63  A    between atoms: _152  and  _153
REMARK   64  A    between atoms: _156  and  _158
REMARK   65  A    between atoms: _158  and  _159
REMARK   66  A    between atoms: _158  and  _161
REMARK   67  A    between atoms: _161  and  _162
REMARK   68  A    between atoms: _162  and  _163
REMARK   69  A    between atoms: _163  and  _164
REMARK   70  A    between atoms: _173  and  _175
REMARK   71  A    between atoms: _175  and  _176
REMARK   72  A    between atoms: _175  and  _178
REMARK   73  A    between atoms: _178  and  _179
REMARK   74  A    between atoms: _179  and  _180
REMARK   75  A    between atoms: _180  and  _181
REMARK   76  A    between atoms: _190  and  _192
REMARK   77  A    between atoms: _192  and  _193
REMARK   78  A    between atoms: _192  and  _195
REMARK   79  A    between atoms: _195  and  _196
REMARK   80  A    between atoms: _196  and  _197
REMARK   81  A    between atoms: _200  and  _202
REMARK   82  A    between atoms: _202  and  _203
REMARK   83  A    between atoms: _202  and  _205
REMARK   84  A    between atoms: _205  and  _206
REMARK   85  A    between atoms: _209  and  _211
REMARK   86  A    between atoms: _211  and  _212
REMARK   87  A    between atoms: _211  and  _214
REMARK   88  A    between atoms: _214  and  _215
REMARK   89  A    between atoms: _218  and  _220
REMARK   90  A    between atoms: _220  and  _221
REMARK   91  A    between atoms: _220  and  _223
REMARK   92  A    between atoms: _223  and  _224
REMARK   93  A    between atoms: _227  and  _229
REMARK   94  A    between atoms: _229  and  _230
REMARK   95  A    between atoms: _229  and  _232
REMARK   96  A    between atoms: _232  and  _233
REMARK   97  A    between atoms: _233  and  _234
REMARK   98  A    between atoms: _236  and  _238
REMARK   99  A    between atoms: _238  and  _239
REMARK  100  A    between atoms: _238  and  _241
REMARK  101  A    between atoms: _241  and  _242
REMARK  102  A    between atoms: _247  and  _249
REMARK  103  A    between atoms: _249  and  _250
REMARK  104  A    between atoms: _249  and  _252
REMARK  105  A    between atoms: _255  and  _257
REMARK  106  A    between atoms: _257  and  _258
REMARK  107  A    between atoms: _257  and  _260
REMARK  108  A    between atoms: _260  and  _261
REMARK  109  A    between atoms: _264  and  _266
REMARK  110  A    between atoms: _266  and  _267
REMARK  111  A    between atoms: _269  and  _271
REMARK  112  A    between atoms: _271  and  _272
REMARK  113  A    between atoms: _271  and  _274
REMARK  114  A    between atoms: _274  and  _275
REMARK  115  A    between atoms: _278  and  _280
REMARK  116  A    between atoms: _280  and  _281
REMARK  117  A    between atoms: _280  and  _283
REMARK  118  A    between atoms: _283  and  _284
REMARK  119  A    between atoms: _287  and  _289
REMARK  120  A    between atoms: _289  and  _290
REMARK  121  A    between atoms: _289  and  _292
REMARK  122  A    between atoms: _292  and  _293
REMARK  123  A    between atoms: _296  and  _298
REMARK  124  A    between atoms: _298  and  _299
REMARK  125  A    between atoms: _298  and  _301
REMARK  126  A    between atoms: _301  and  _302
REMARK  127  A    between atoms: _307  and  _308
REMARK  128  A    between atoms: _310  and  _312
REMARK  129  A    between atoms: _312  and  _313
REMARK  130  A    between atoms: _312  and  _315
REMARK  131  A    between atoms: _315  and  _316
REMARK  132  A    between atoms: _319  and  _321
REMARK  133  A    between atoms: _321  and  _322
REMARK  134  A    between atoms: _321  and  _324
REMARK  135  A    between atoms: _327  and  _329
REMARK  136  A    between atoms: _329  and  _330
REMARK  137  A    between atoms: _329  and  _332
REMARK  138  A    between atoms: _332  and  _333
REMARK  139  A    between atoms: _336  and  _338
REMARK  140  A    between atoms: _338  and  _339
REMARK  141  A    between atoms: _338  and  _341
REMARK  142  A    between atoms: _341  and  _342
REMARK  143  A    between atoms: _347  and  _349
REMARK  144  A    between atoms: _349  and  _350
REMARK  145  A    between atoms: _349  and  _352
REMARK  146  A    between atoms: _352  and  _353
REMARK  147  A    between atoms: _356  and  _358
REMARK  148  A    between atoms: _358  and  _359
REMARK  149  A    between atoms: _358  and  _361
REMARK  150  A    between atoms: _361  and  _362
REMARK  151  A    between atoms: _362  and  _363
REMARK  152  A    between atoms: _365  and  _367
REMARK  153  A    between atoms: _367  and  _368
REMARK  154  A    between atoms: _370  and  _372
REMARK  155  A    between atoms: _372  and  _373
REMARK  156  A    between atoms: _376  and  _378
REMARK  157  A    between atoms: _378  and  _379
REMARK  158  A    between atoms: _378  and  _381
REMARK  159  A    between atoms: _381  and  _382
REMARK  160  A    between atoms: _385  and  _387
REMARK  161  A    between atoms: _387  and  _388
REMARK  162  A    between atoms: _387  and  _390
REMARK  163  A    between atoms: _390  and  _391
REMARK  164  A    between atoms: _396  and  _398
REMARK  165  A    between atoms: _398  and  _399
REMARK  166  A    between atoms: _398  and  _401
REMARK  167  A    between atoms: _401  and  _402
REMARK  168  A    between atoms: _407  and  _409
REMARK  169  A    between atoms: _409  and  _410
REMARK  170  A    between atoms: _412  and  _414
REMARK  171  A    between atoms: _414  and  _415
REMARK  172  A    between atoms: _414  and  _417
REMARK  173  A    between atoms: _417  and  _418
REMARK  174  A    between atoms: _421  and  _423
REMARK  175  A    between atoms: _423  and  _424
REMARK  176  A    between atoms: _423  and  _426
REMARK  177  A    between atoms: _426  and  _427
REMARK  178  A    between atoms: _432  and  _433
REMARK  179  A    between atoms: _435  and  _437
REMARK  180  A    between atoms: _437  and  _438
REMARK  181  A    between atoms: _437  and  _440
REMARK  182  A    between atoms: _440  and  _441
REMARK  183  A    between atoms: _444  and  _446
REMARK  184  A    between atoms: _446  and  _447
REMARK  185  A    between atoms: _446  and  _449
REMARK  186  A    between atoms: _449  and  _450
REMARK  187  A    between atoms: _453  and  _455
REMARK  188  A    between atoms: _455  and  _456
REMARK  189  A    between atoms: _455  and  _458
REMARK  190  A    between atoms: _458  and  _459
REMARK  191  A    between atoms: _462  and  _464
REMARK  192  A    between atoms: _464  and  _465
REMARK  193  A    between atoms: _464  and  _467
REMARK  194  A    between atoms: _467  and  _468
REMARK  195  A    between atoms: _473  and  _475
REMARK  196  A    between atoms: _475  and  _476
REMARK  197  A    between atoms: _475  and  _478
REMARK  198  A    between atoms: _478  and  _479
REMARK  199  A    between atoms: _479  and  _480
REMARK  200  A    between atoms: _480  and  _481
REMARK  201  A    between atoms: _490  and  _492
REMARK  202  A    between atoms: _492  and  _493
REMARK  203  A    between atoms: _492  and  _495
REMARK  204  A    between atoms: _495  and  _496
REMARK  205  A    between atoms: _499  and  _501
REMARK  206  A    between atoms: _501  and  _502
REMARK  207  A    between atoms: _501  and  _504
REMARK  208  A    between atoms: _504  and  _505
REMARK  209  A    between atoms: _508  and  _510
REMARK  210  A    between atoms: _510  and  _511
REMARK  211  A    between atoms: _510  and  _513
REMARK  212  A    between atoms: _513  and  _514
REMARK  213  A    between atoms: _516  and  _518
REMARK  214  A    between atoms: _518  and  _519
REMARK  215  A    between atoms: _518  and  _521
REMARK  216  A    between atoms: _521  and  _522
REMARK  217  A    between atoms: _527  and  _529
REMARK  218  A    between atoms: _529  and  _530
REMARK  219  A    between atoms: _533  and  _535
REMARK  220  A    between atoms: _535  and  _536
REMARK  221  A    between atoms: _535  and  _538
REMARK  222  A    between atoms: _538  and  _539
REMARK  223  A    between atoms: _539  and  _540
REMARK  224  A    between atoms: _540  and  _541
REMARK  225  A    between atoms: _541  and  _542
REMARK  226  A    between atoms: _546  and  _548
REMARK  227  A    between atoms: _548  and  _549
REMARK  228  A    between atoms: _548  and  _551
REMARK  229  A    between atoms: _551  and  _552
REMARK  230  A    between atoms: _555  and  _557
REMARK  231  A    between atoms: _557  and  _558
REMARK  232  A    between atoms: _557  and  _560
REMARK  233  A    between atoms: _560  and  _561
REMARK  234  A    between atoms: _564  and  _566
REMARK  235  A    between atoms: _566  and  _567
REMARK  236  A    between atoms: _566  and  _569
REMARK  237  A    between atoms: _569  and  _570
REMARK  238  A    between atoms: _573  and  _575
REMARK  239  A    between atoms: _575  and  _576
REMARK  240  A    between atoms: _575  and  _578
REMARK  241  A    between atoms: _578  and  _579
REMARK  242  A    between atoms: _585  and  _587
REMARK  243  A    between atoms: _587  and  _588
REMARK  244  A    between atoms: _590  and  _592
REMARK  245  A    between atoms: _592  and  _593
REMARK  246  A    between atoms: _592  and  _595
REMARK  247  A    between atoms: _595  and  _596
REMARK                            x       y       z     vdW  Elec       q    Type
REMARK                         _______ _______ _______ _____ _____    ______ ____
ROOT
ATOM      1  C   ARG A   1      -2.799   7.733   7.880  0.00  0.00    +0.238 C 
ATOM      2  N   GLU A   2      -3.375   7.835   9.077  0.00  0.00    -0.297 N 
ATOM      3  H   GLU A   2      -3.806   8.730   9.385  0.00  0.00    +0.150 HD
ATOM      4  O   ARG A   1      -2.275   6.699   7.522  0.00  0.00    -0.274 OA
ENDROOT
BRANCH   1   5
ATOM      5  CA  ARG A   1      -2.790   8.932   6.954  0.00  0.00    +0.145 C 
BRANCH   5   6
ATOM      6  N   ARG A   1      -4.127   9.536   6.786  0.00  0.00    -0.238 NA
ATOM      7  H   ARG A   1      -4.255  10.536   7.041  0.00  0.00    +0.142 HD
ENDBRANCH   5   6
BRANCH   5   8
ATOM      8  CB  ARG A   1      -1.761   9.961   7.461  0.00  0.00    +0.030 C 
BRANCH   8   9
ATOM      9  CG  ARG A   1      -0.330   9.415   7.828  0.00  0.00    +0.045 C 
BRANCH   9  10
ATOM     10  CD  ARG A   1       0.590  10.494   8.472  0.00  0.00    +0.174 C 
BRANCH  10  11
ATOM     11  NE  ARG A   1       0.654  11.709   7.622  0.00  0.00    -0.265 N 
ATOM     12  CZ  ARG A   1       0.282  12.945   7.956  0.00  0.00    +0.342 C 
ATOM     13  NH2 ARG A   1      -0.188  13.235   9.174  0.00  0.00    -0.292 N 
ATOM     14 HH21 ARG A   1      -0.271  12.486   9.891  0.00  0.00    +0.255 HD
ATOM     15 HH22 ARG A   1      -0.470  14.209   9.404  0.00  0.00    +0.255 HD
ATOM     16  NH1 ARG A   1       0.395  13.928   7.057  0.00  0.00    -0.292 N 
ATOM     17 HH11 ARG A   1       0.108  14.896   7.306  0.00  0.00    +0.255 HD
ATOM     18 HH12 ARG A   1       0.770  13.725   6.108  0.00  0.00    +0.255 HD
ATOM     19  HE  ARG A   1       1.030  11.582   6.661  0.00  0.00    +0.259 HD
ENDBRANCH  10  11
ENDBRANCH   9  10
ENDBRANCH   8   9
ENDBRANCH   5   8
ENDBRANCH   1   5
BRANCH   2  20
ATOM     20  CA  GLU A   2      -3.387   6.650   9.955  0.00  0.00    +0.149 C 
BRANCH  20  21
ATOM     21  C   GLU A   2      -4.143   5.444   9.295  0.00  0.00    +0.241 C 
ATOM     22  O   GLU A   2      -3.669   4.314   9.334  0.00  0.00    -0.273 OA
ATOM     23  N   LEU A   3      -5.286   5.714   8.666  0.00  0.00    -0.298 N 
ATOM     24  H   LEU A   3      -5.587   6.706   8.588  0.00  0.00    +0.150 HD
BRANCH  23  25
ATOM     25  CA  LEU A   3      -6.137   4.678   8.080  0.00  0.00    +0.137 C 
BRANCH  25  26
ATOM     26  C   LEU A   3      -5.479   3.985   6.892  0.00  0.00    +0.227 C 
ATOM     27  O   LEU A   3      -5.497   2.755   6.783  0.00  0.00    -0.286 OA
ENDBRANCH  25  26
BRANCH  25  28
ATOM     28  CB  LEU A   3      -7.522   5.260   7.713  0.00  0.00    +0.028 C 
BRANCH  28  29
ATOM     29  CG  LEU A   3      -8.534   4.332   7.009  0.00  0.00    +0.002 C 
ATOM     30  CD2 LEU A   3      -8.670   2.970   7.678  0.00  0.00    +0.000 C 
ATOM     31  CD1 LEU A   3      -9.899   4.995   6.918  0.00  0.00    +0.000 C 
ENDBRANCH  28  29
ENDBRANCH  25  28
ENDBRANCH  23  25
ENDBRANCH  20  21
BRANCH  20  32
ATOM     32  CB  GLU A   2      -3.940   6.973  11.346  0.00  0.00    +0.041 C 
BRANCH  32  33
ATOM     33  CG  GLU A   2      -3.753   5.808  12.329  0.00  0.00    +0.116 C 
BRANCH  33  34
ATOM     34  CD  GLU A   2      -4.271   6.092  13.724  0.00  0.00    +0.365 C 
ATOM     35  OE2 GLU A   2      -4.075   5.251  14.636  0.00  0.00    -0.246 OA
ATOM     36  OE1 GLU A   2      -4.915   7.130  13.921  0.00  0.00    -0.246 OA
ENDBRANCH  33  34
ENDBRANCH  32  33
ENDBRANCH  20  32
ENDBRANCH   2  20
TORSDOF 15
REMARK  Name = ../refined-set-2016/2bak/2bak_pocket.pdb
REMARK  247 active torsions:
REMARK  status: ('A' for Active; 'I' for Inactive)
REMARK    1  A    between atoms: _2  and  _3
REMARK    2  A    between atoms: _8  and  _10
REMARK    3  A    between atoms: _10  and  _11
REMARK    4  A    between atoms: _10  and  _13
REMARK    5  A    between atoms: _16  and  _18
REMARK    6  A    between atoms: _18  and  _19
REMARK    7  A    between atoms: _21  and  _23
REMARK    8  A    between atoms: _23  and  _24
REMARK    9  A    between atoms: _23  and  _26
REMARK   10  A    between atoms: _26  and  _27
REMARK   11  A    between atoms: _29  and  _31
REMARK   12  A    between atoms: _31  and  _32
REMARK   13  A    between atoms: _34  and  _36
REMARK   14  A    between atoms: _36  and  _37
REMARK   15  A    between atoms: _36  and  _39
REMARK   16  A    between atoms: _39  and  _40
REMARK   17  A    between atoms: _45  and  _46
REMARK   18  A    between atoms: _48  and  _50
REMARK   19  A    between atoms: _50  and  _51
REMARK   20  A    between atoms: _53  and  _55
REMARK   21  A    between atoms: _55  and  _56
REMARK   22  A    between atoms: _55  and  _58
REMARK   23  A    between atoms: _58  and  _59
REMARK   24  A    between atoms: _61  and  _63
REMARK   25  A    between atoms: _63  and  _64
REMARK   26  A    between atoms: _63  and  _66
REMARK   27  A    between atoms: _69  and  _71
REMARK   28  A    between atoms: _71  and  _72
REMARK   29  A    between atoms: _71  and  _74
REMARK   30  A    between atoms: _76  and  _78
REMARK   31  A    between atoms: _78  and  _79
REMARK   32  A    between atoms: _82  and  _84
REMARK   33  A    between atoms: _84  and  _85
REMARK   34  A    between atoms: _84  and  _87
REMARK   35  A    between atoms: _87  and  _88
REMARK   36  A    between atoms: _88  and  _89
REMARK   37  A    between atoms: _89  and  _90
REMARK   38  A    between atoms: _99  and  _101
REMARK   39  A    between atoms: _101  and  _102
REMARK   40  A    between atoms: _101  and  _104
REMARK   41  A    between atoms: _107  and  _109
REMARK   42  A    between atoms: _109  and  _110
REMARK   43  A    between atoms: _113  and  _115
REMARK   44  A    between atoms: _115  and  _116
REMARK   45  A    between atoms: _115  and  _118
REMARK   46  A    between atoms: _121  and  _123
REMARK   47  A    between atoms: _123  and  _124
REMARK   48  A    between atoms: _123  and  _126
REMARK   49  A    between atoms: _126  and  _127
REMARK   50  A    between atoms: _127  and  _128
REMARK   51  A    between atoms: _128  and  _129
REMARK   52  A    between atoms: _129  and  _130
REMARK   53  A    between atoms: _134  and  _136
REMARK   54  A    between atoms: _136  and  _137
REMARK   55  A    between atoms: _136  and  _139
REMARK   56  A    between atoms: _139  and  _140
REMARK   57  A    between atoms: _140  and  _141
REMARK   58  A    between atoms: _141  and  _142
REMARK   59  A    between atoms: _142  and  _143
REMARK   60  A    between atoms: _147  and  _149
REMARK   61  A    between atoms: _149  and  _150
REMARK   62  A    between atoms: _149  and  _152
REMARK   63  A    between atoms: _152  and  _153
REMARK   64  A    between atoms: _156  and  _158
REMARK   65  A    between atoms: _158  and  _159
REMARK   66  A    between atoms: _158  and  _161
REMARK   67  A    between atoms: _161  and  _162
REMARK   68  A    between atoms: _162  and  _163
REMARK   69  A    between atoms: _163  and  _164
REMARK   70  A    between atoms: _173  and  _175
REMARK   71  A    between atoms: _175  and  _176
REMARK   72  A    between atoms: _175  and  _178
REMARK   73  A    between atoms: _178  and  _179
REMARK   74  A    between atoms: _179  and  _180
REMARK   75  A    between atoms: _180  and  _181
REMARK   76  A    between atoms: _190  and  _192
REMARK   77  A    between atoms: _192  and  _193
REMARK   78  A    between atoms: _192  and  _195
REMARK   79  A    between atoms: _195  and  _196
REMARK   80  A    between atoms: _196  and  _197
REMARK   81  A    between atoms: _200  and  _202
REMARK   82  A    between atoms: _202  and  _203
REMARK   83  A    between atoms: _202  and  _205
REMARK   84  A    between atoms: _205  and  _206
REMARK   85  A    between atoms: _209  and  _211
REMARK   86  A    between atoms: _211  and  _212
REMARK   87  A    between atoms: _211  and  _214
REMARK   88  A    between atoms: _214  and  _215
REMARK   89  A    between atoms: _218  and  _220
REMARK   90  A    between atoms: _220  and  _221
REMARK   91  A    between atoms: _220  and  _223
REMARK   92  A    between atoms: _223  and  _224
REMARK   93  A    between atoms: _227  and  _229
REMARK   94  A    between atoms: _229  and  _230
REMARK   95  A    between atoms: _229  and  _232
REMARK   96  A    between atoms: _232  and  _233
REMARK   97  A    between atoms: _233  and  _234
REMARK   98  A    between atoms: _236  and  _238
REMARK   99  A    between atoms: _238  and  _239
REMARK  100  A    between atoms: _238  and  _241
REMARK  101  A    between atoms: _241  and  _242
REMARK  102  A    between atoms: _247  and  _249
REMARK  103  A    between atoms: _249  and  _250
REMARK  104  A    between atoms: _249  and  _252
REMARK  105  A    between atoms: _255  and  _257
REMARK  106  A    between atoms: _257  and  _258
REMARK  107  A    between atoms: _257  and  _260
REMARK  108  A    between atoms: _260  and  _261
REMARK  109  A    between atoms: _264  and  _266
REMARK  110  A    between atoms: _266  and  _267
REMARK  111  A    between atoms: _269  and  _271
REMARK  112  A    between atoms: _271  and  _272
REMARK  113  A    between atoms: _271  and  _274
REMARK  114  A    between atoms: _274  and  _275
REMARK  115  A    between atoms: _278  and  _280
REMARK  116  A    between atoms: _280  and  _281
REMARK  117  A    between atoms: _280  and  _283
REMARK  118  A    between atoms: _283  and  _284
REMARK  119  A    between atoms: _287  and  _289
REMARK  120  A    between atoms: _289  and  _290
REMARK  121  A    between atoms: _289  and  _292
REMARK  122  A    between atoms: _292  and  _293
REMARK  123  A    between atoms: _296  and  _298
REMARK  124  A    between atoms: _298  and  _299
REMARK  125  A    between atoms: _298  and  _301
REMARK  126  A    between atoms: _301  and  _302
REMARK  127  A    between atoms: _307  and  _308
REMARK  128  A    between atoms: _310  and  _312
REMARK  129  A    between atoms: _312  and  _313
REMARK  130  A    between atoms: _312  and  _315
REMARK  131  A    between atoms: _315  and  _316
REMARK  132  A    between atoms: _319  and  _321
REMARK  133  A    between atoms: _321  and  _322
REMARK  134  A    between atoms: _321  and  _324
REMARK  135  A    between atoms: _327  and  _329
REMARK  136  A    between atoms: _329  and  _330
REMARK  137  A    between atoms: _329  and  _332
REMARK  138  A    between atoms: _332  and  _333
REMARK  139  A    between atoms: _336  and  _338
REMARK  140  A    between atoms: _338  and  _339
REMARK  141  A    between atoms: _338  and  _341
REMARK  142  A    between atoms: _341  and  _342
REMARK  143  A    between atoms: _347  and  _349
REMARK  144  A    between atoms: _349  and  _350
REMARK  145  A    between atoms: _349  and  _352
REMARK  146  A    between atoms: _352  and  _353
REMARK  147  A    between atoms: _356  and  _358
REMARK  148  A    between atoms: _358  and  _359
REMARK  149  A    between atoms: _358  and  _361
REMARK  150  A    between atoms: _361  and  _362
REMARK  151  A    between atoms: _362  and  _363
REMARK  152  A    between atoms: _365  and  _367
REMARK  153  A    between atoms: _367  and  _368
REMARK  154  A    between atoms: _370  and  _372
REMARK  155  A    between atoms: _372  and  _373
REMARK  156  A    between atoms: _376  and  _378
REMARK  157  A    between atoms: _378  and  _379
REMARK  158  A    between atoms: _378  and  _381
REMARK  159  A    between atoms: _381  and  _382
REMARK  160  A    between atoms: _385  and  _387
REMARK  161  A    between atoms: _387  and  _388
REMARK  162  A    between atoms: _387  and  _390
REMARK  163  A    between atoms: _390  and  _391
REMARK  164  A    between atoms: _396  and  _398
REMARK  165  A    between atoms: _398  and  _399
REMARK  166  A    between atoms: _398  and  _401
REMARK  167  A    between atoms: _401  and  _402
REMARK  168  A    between atoms: _407  and  _409
REMARK  169  A    between atoms: _409  and  _410
REMARK  170  A    between atoms: _412  and  _414
REMARK  171  A    between atoms: _414  and  _415
REMARK  172  A    between atoms: _414  and  _417
REMARK  173  A    between atoms: _417  and  _418
REMARK  174  A    between atoms: _421  and  _423
REMARK  175  A    between atoms: _423  and  _424
REMARK  176  A    between atoms: _423  and  _426
REMARK  177  A    between atoms: _426  and  _427
REMARK  178  A    between atoms: _432  and  _433
REMARK  179  A    between atoms: _435  and  _437
REMARK  180  A    between atoms: _437  and  _438
REMARK  181  A    between atoms: _437  and  _440
REMARK  182  A    between atoms: _440  and  _441
REMARK  183  A    between atoms: _444  and  _446
REMARK  184  A    between atoms: _446  and  _447
REMARK  185  A    between atoms: _446  and  _449
REMARK  186  A    between atoms: _449  and  _450
REMARK  187  A    between atoms: _453  and  _455
REMARK  188  A    between atoms: _455  and  _456
REMARK  189  A    between atoms: _455  and  _458
REMARK  190  A    between atoms: _458  and  _459
REMARK  191  A    between atoms: _462  and  _464
REMARK  192  A    between atoms: _464  and  _465
REMARK  193  A    between atoms: _464  and  _467
REMARK  194  A    between atoms: _467  and  _468
REMARK  195  A    between atoms: _473  and  _475
REMARK  196  A    between atoms: _475  and  _476
REMARK  197  A    between atoms: _475  and  _478
REMARK  198  A    between atoms: _478  and  _479
REMARK  199  A    between atoms: _479  and  _480
REMARK  200  A    between atoms: _480  and  _481
REMARK  201  A    between atoms: _490  and  _492
REMARK  202  A    between atoms: _492  and  _493
REMARK  203  A    between atoms: _492  and  _495
REMARK  204  A    between atoms: _495  and  _496
REMARK  205  A    between atoms: _499  and  _501
REMARK  206  A    between atoms: _501  and  _502
REMARK  207  A    between atoms: _501  and  _504
REMARK  208  A    between atoms: _504  and  _505
REMARK  209  A    between atoms: _508  and  _510
REMARK  210  A    between atoms: _510  and  _511
REMARK  211  A    between atoms: _510  and  _513
REMARK  212  A    between atoms: _513  and  _514
REMARK  213  A    between atoms: _516  and  _518
REMARK  214  A    between atoms: _518  and  _519
REMARK  215  A    between atoms: _518  and  _521
REMARK  216  A    between atoms: _521  and  _522
REMARK  217  A    between atoms: _527  and  _529
REMARK  218  A    between atoms: _529  and  _530
REMARK  219  A    between atoms: _533  and  _535
REMARK  220  A    between atoms: _535  and  _536
REMARK  221  A    between atoms: _535  and  _538
REMARK  222  A    between atoms: _538  and  _539
REMARK  223  A    between atoms: _539  and  _540
REMARK  224  A    between atoms: _540  and  _541
REMARK  225  A    between atoms: _541  and  _542
REMARK  226  A    between atoms: _546  and  _548
REMARK  227  A    between atoms: _548  and  _549
REMARK  228  A    between atoms: _548  and  _551
REMARK  229  A    between atoms: _551  and  _552
REMARK  230  A    between atoms: _555  and  _557
REMARK  231  A    between atoms: _557  and  _558
REMARK  232  A    between atoms: _557  and  _560
REMARK  233  A    between atoms: _560  and  _561
REMARK  234  A    between atoms: _564  and  _566
REMARK  235  A    between atoms: _566  and  _567
REMARK  236  A    between atoms: _566  and  _569
REMARK  237  A    between atoms: _569  and  _570
REMARK  238  A    between atoms: _573  and  _575
REMARK  239  A    between atoms: _575  and  _576
REMARK  240  A    between atoms: _575  and  _578
REMARK  241  A    between atoms: _578  and  _579
REMARK  242  A    between atoms: _585  and  _587
REMARK  243  A    between atoms: _587  and  _588
REMARK  244  A    between atoms: _590  and  _592
REMARK  245  A    between atoms: _592  and  _593
REMARK  246  A    between atoms: _592  and  _595
REMARK  247  A    between atoms: _595  and  _596
REMARK                            x       y       z     vdW  Elec       q    Type
REMARK                         _______ _______ _______ _____ _____    ______ ____
ROOT
ATOM      1  C   LEU A   1      -1.421   1.746   7.600  0.00  0.00    +0.238 C 
ATOM      2  N   LEU A   2      -2.493   1.743   8.404  0.00  0.00    -0.298 N 
ATOM      3  H   LEU A   2      -3.059   2.609   8.510  0.00  0.00    +0.150 HD
ATOM      4  O   LEU A   1      -0.732   0.724   7.372  0.00  0.00    -0.274 OA
ENDROOT
BRANCH   1   5
ATOM      5  CA  LEU A   1      -1.034   3.081   6.965  0.00  0.00    +0.145 C 
BRANCH   5   6
ATOM      6  N   LEU A   1      -2.160   3.807   6.351  0.00  0.00    -0.238 NA
ATOM      7  H   LEU A   1      -2.353   4.779   6.668  0.00  0.00    +0.142 HD
ENDBRANCH   5   6
BRANCH   5   8
ATOM      8  CB  LEU A   1      -0.401   3.940   8.058  0.00  0.00    +0.026 C 
BRANCH   8   9
ATOM      9  CG  LEU A   1       1.112   4.132   8.186  0.00  0.00    +0.002 C 
ATOM     10  CD2 LEU A   1       1.591   3.211   9.233  0.00  0.00    +0.000 C 
ATOM     11  CD1 LEU A   1       1.454   5.545   8.619  0.00  0.00    +0.000 C 
ENDBRANCH   8   9
ENDBRANCH   5   8
ENDBRANCH   1   5
BRANCH   2  12
ATOM     12  CA  LEU A   2      -2.877   0.527   9.138  0.00  0.00    +0.137 C 
BRANCH  12  13
ATOM     13  C   LEU A   2      -3.466  -0.525   8.179  0.00  0.00    +0.227 C 
ATOM     14  O   LEU A   2      -3.324  -1.734   8.396  0.00  0.00    -0.286 OA
ENDBRANCH  12  13
BRANCH  12  15
ATOM     15  CB  LEU A   2      -3.852   0.807  10.295  0.00  0.00    +0.028 C 
BRANCH  15  16
ATOM     16  CG  LEU A   2      -3.378   1.707  11.433  0.00  0.00    +0.002 C 
ATOM     17  CD2 LEU A   2      -4.455   1.981  12.476  0.00  0.00    +0.000 C 
ATOM     18  CD1 LEU A   2      -2.157   1.160  12.089  0.00  0.00    +0.000 C 
ENDBRANCH  15  16
ENDBRANCH  12  15
ENDBRANCH   2  12
TORSDOF 8
REMARK  Name = ../refined-set-2016/2bak/2bak_pocket.pdb
REMARK  247 active torsions:
REMARK  status: ('A' for Active; 'I' for Inactive)
REMARK    1  A    between atoms: _2  and  _3
REMARK    2  A    between atoms: _8  and  _10
REMARK    3  A    between atoms: _10  and  _11
REMARK    4  A    between atoms: _10  and  _13
REMARK    5  A    between atoms: _16  and  _18
REMARK    6  A    between atoms: _18  and  _19
REMARK    7  A    between atoms: _21  and  _23
REMARK    8  A    between atoms: _23  and  _24
REMARK    9  A    between atoms: _23  and  _26
REMARK   10  A    between atoms: _26  and  _27
REMARK   11  A    between atoms: _29  and  _31
REMARK   12  A    between atoms: _31  and  _32
REMARK   13  A    between atoms: _34  and  _36
REMARK   14  A    between atoms: _36  and  _37
REMARK   15  A    between atoms: _36  and  _39
REMARK   16  A    between atoms: _39  and  _40
REMARK   17  A    between atoms: _45  and  _46
REMARK   18  A    between atoms: _48  and  _50
REMARK   19  A    between atoms: _50  and  _51
REMARK   20  A    between atoms: _53  and  _55
REMARK   21  A    between atoms: _55  and  _56
REMARK   22  A    between atoms: _55  and  _58
REMARK   23  A    between atoms: _58  and  _59
REMARK   24  A    between atoms: _61  and  _63
REMARK   25  A    between atoms: _63  and  _64
REMARK   26  A    between atoms: _63  and  _66
REMARK   27  A    between atoms: _69  and  _71
REMARK   28  A    between atoms: _71  and  _72
REMARK   29  A    between atoms: _71  and  _74
REMARK   30  A    between atoms: _76  and  _78
REMARK   31  A    between atoms: _78  and  _79
REMARK   32  A    between atoms: _82  and  _84
REMARK   33  A    between atoms: _84  and  _85
REMARK   34  A    between atoms: _84  and  _87
REMARK   35  A    between atoms: _87  and  _88
REMARK   36  A    between atoms: _88  and  _89
REMARK   37  A    between atoms: _89  and  _90
REMARK   38  A    between atoms: _99  and  _101
REMARK   39  A    between atoms: _101  and  _102
REMARK   40  A    between atoms: _101  and  _104
REMARK   41  A    between atoms: _107  and  _109
REMARK   42  A    between atoms: _109  and  _110
REMARK   43  A    between atoms: _113  and  _115
REMARK   44  A    between atoms: _115  and  _116
REMARK   45  A    between atoms: _115  and  _118
REMARK   46  A    between atoms: _121  and  _123
REMARK   47  A    between atoms: _123  and  _124
REMARK   48  A    between atoms: _123  and  _126
REMARK   49  A    between atoms: _126  and  _127
REMARK   50  A    between atoms: _127  and  _128
REMARK   51  A    between atoms: _128  and  _129
REMARK   52  A    between atoms: _129  and  _130
REMARK   53  A    between atoms: _134  and  _136
REMARK   54  A    between atoms: _136  and  _137
REMARK   55  A    between atoms: _136  and  _139
REMARK   56  A    between atoms: _139  and  _140
REMARK   57  A    between atoms: _140  and  _141
REMARK   58  A    between atoms: _141  and  _142
REMARK   59  A    between atoms: _142  and  _143
REMARK   60  A    between atoms: _147  and  _149
REMARK   61  A    between atoms: _149  and  _150
REMARK   62  A    between atoms: _149  and  _152
REMARK   63  A    between atoms: _152  and  _153
REMARK   64  A    between atoms: _156  and  _158
REMARK   65  A    between atoms: _158  and  _159
REMARK   66  A    between atoms: _158  and  _161
REMARK   67  A    between atoms: _161  and  _162
REMARK   68  A    between atoms: _162  and  _163
REMARK   69  A    between atoms: _163  and  _164
REMARK   70  A    between atoms: _173  and  _175
REMARK   71  A    between atoms: _175  and  _176
REMARK   72  A    between atoms: _175  and  _178
REMARK   73  A    between atoms: _178  and  _179
REMARK   74  A    between atoms: _179  and  _180
REMARK   75  A    between atoms: _180  and  _181
REMARK   76  A    between atoms: _190  and  _192
REMARK   77  A    between atoms: _192  and  _193
REMARK   78  A    between atoms: _192  and  _195
REMARK   79  A    between atoms: _195  and  _196
REMARK   80  A    between atoms: _196  and  _197
REMARK   81  A    between atoms: _200  and  _202
REMARK   82  A    between atoms: _202  and  _203
REMARK   83  A    between atoms: _202  and  _205
REMARK   84  A    between atoms: _205  and  _206
REMARK   85  A    between atoms: _209  and  _211
REMARK   86  A    between atoms: _211  and  _212
REMARK   87  A    between atoms: _211  and  _214
REMARK   88  A    between atoms: _214  and  _215
REMARK   89  A    between atoms: _218  and  _220
REMARK   90  A    between atoms: _220  and  _221
REMARK   91  A    between atoms: _220  and  _223
REMARK   92  A    between atoms: _223  and  _224
REMARK   93  A    between atoms: _227  and  _229
REMARK   94  A    between atoms: _229  and  _230
REMARK   95  A    between atoms: _229  and  _232
REMARK   96  A    between atoms: _232  and  _233
REMARK   97  A    between atoms: _233  and  _234
REMARK   98  A    between atoms: _236  and  _238
REMARK   99  A    between atoms: _238  and  _239
REMARK  100  A    between atoms: _238  and  _241
REMARK  101  A    between atoms: _241  and  _242
REMARK  102  A    between atoms: _247  and  _249
REMARK  103  A    between atoms: _249  and  _250
REMARK  104  A    between atoms: _249  and  _252
REMARK  105  A    between atoms: _255  and  _257
REMARK  106  A    between atoms: _257  and  _258
REMARK  107  A    between atoms: _257  and  _260
REMARK  108  A    between atoms: _260  and  _261
REMARK  109  A    between atoms: _264  and  _266
REMARK  110  A    between atoms: _266  and  _267
REMARK  111  A    between atoms: _269  and  _271
REMARK  112  A    between atoms: _271  and  _272
REMARK  113  A    between atoms: _271  and  _274
REMARK  114  A    between atoms: _274  and  _275
REMARK  115  A    between atoms: _278  and  _280
REMARK  116  A    between atoms: _280  and  _281
REMARK  117  A    between atoms: _280  and  _283
REMARK  118  A    between atoms: _283  and  _284
REMARK  119  A    between atoms: _287  and  _289
REMARK  120  A    between atoms: _289  and  _290
REMARK  121  A    between atoms: _289  and  _292
REMARK  122  A    between atoms: _292  and  _293
REMARK  123  A    between atoms: _296  and  _298
REMARK  124  A    between atoms: _298  and  _299
REMARK  125  A    between atoms: _298  and  _301
REMARK  126  A    between atoms: _301  and  _302
REMARK  127  A    between atoms: _307  and  _308
REMARK  128  A    between atoms: _310  and  _312
REMARK  129  A    between atoms: _312  and  _313
REMARK  130  A    between atoms: _312  and  _315
REMARK  131  A    between atoms: _315  and  _316
REMARK  132  A    between atoms: _319  and  _321
REMARK  133  A    between atoms: _321  and  _322
REMARK  134  A    between atoms: _321  and  _324
REMARK  135  A    between atoms: _327  and  _329
REMARK  136  A    between atoms: _329  and  _330
REMARK  137  A    between atoms: _329  and  _332
REMARK  138  A    between atoms: _332  and  _333
REMARK  139  A    between atoms: _336  and  _338
REMARK  140  A    between atoms: _338  and  _339
REMARK  141  A    between atoms: _338  and  _341
REMARK  142  A    between atoms: _341  and  _342
REMARK  143  A    between atoms: _347  and  _349
REMARK  144  A    between atoms: _349  and  _350
REMARK  145  A    between atoms: _349  and  _352
REMARK  146  A    between atoms: _352  and  _353
REMARK  147  A    between atoms: _356  and  _358
REMARK  148  A    between atoms: _358  and  _359
REMARK  149  A    between atoms: _358  and  _361
REMARK  150  A    between atoms: _361  and  _362
REMARK  151  A    between atoms: _362  and  _363
REMARK  152  A    between atoms: _365  and  _367
REMARK  153  A    between atoms: _367  and  _368
REMARK  154  A    between atoms: _370  and  _372
REMARK  155  A    between atoms: _372  and  _373
REMARK  156  A    between atoms: _376  and  _378
REMARK  157  A    between atoms: _378  and  _379
REMARK  158  A    between atoms: _378  and  _381
REMARK  159  A    between atoms: _381  and  _382
REMARK  160  A    between atoms: _385  and  _387
REMARK  161  A    between atoms: _387  and  _388
REMARK  162  A    between atoms: _387  and  _390
REMARK  163  A    between atoms: _390  and  _391
REMARK  164  A    between atoms: _396  and  _398
REMARK  165  A    between atoms: _398  and  _399
REMARK  166  A    between atoms: _398  and  _401
REMARK  167  A    between atoms: _401  and  _402
REMARK  168  A    between atoms: _407  and  _409
REMARK  169  A    between atoms: _409  and  _410
REMARK  170  A    between atoms: _412  and  _414
REMARK  171  A    between atoms: _414  and  _415
REMARK  172  A    between atoms: _414  and  _417
REMARK  173  A    between atoms: _417  and  _418
REMARK  174  A    between atoms: _421  and  _423
REMARK  175  A    between atoms: _423  and  _424
REMARK  176  A    between atoms: _423  and  _426
REMARK  177  A    between atoms: _426  and  _427
REMARK  178  A    between atoms: _432  and  _433
REMARK  179  A    between atoms: _435  and  _437
REMARK  180  A    between atoms: _437  and  _438
REMARK  181  A    between atoms: _437  and  _440
REMARK  182  A    between atoms: _440  and  _441
REMARK  183  A    between atoms: _444  and  _446
REMARK  184  A    between atoms: _446  and  _447
REMARK  185  A    between atoms: _446  and  _449
REMARK  186  A    between atoms: _449  and  _450
REMARK  187  A    between atoms: _453  and  _455
REMARK  188  A    between atoms: _455  and  _456
REMARK  189  A    between atoms: _455  and  _458
REMARK  190  A    between atoms: _458  and  _459
REMARK  191  A    between atoms: _462  and  _464
REMARK  192  A    between atoms: _464  and  _465
REMARK  193  A    between atoms: _464  and  _467
REMARK  194  A    between atoms: _467  and  _468
REMARK  195  A    between atoms: _473  and  _475
REMARK  196  A    between atoms: _475  and  _476
REMARK  197  A    between atoms: _475  and  _478
REMARK  198  A    between atoms: _478  and  _479
REMARK  199  A    between atoms: _479  and  _480
REMARK  200  A    between atoms: _480  and  _481
REMARK  201  A    between atoms: _490  and  _492
REMARK  202  A    between atoms: _492  and  _493
REMARK  203  A    between atoms: _492  and  _495
REMARK  204  A    between atoms: _495  and  _496
REMARK  205  A    between atoms: _499  and  _501
REMARK  206  A    between atoms: _501  and  _502
REMARK  207  A    between atoms: _501  and  _504
REMARK  208  A    between atoms: _504  and  _505
REMARK  209  A    between atoms: _508  and  _510
REMARK  210  A    between atoms: _510  and  _511
REMARK  211  A    between atoms: _510  and  _513
REMARK  212  A    between atoms: _513  and  _514
REMARK  213  A    between atoms: _516  and  _518
REMARK  214  A    between atoms: _518  and  _519
REMARK  215  A    between atoms: _518  and  _521
REMARK  216  A    between atoms: _521  and  _522
REMARK  217  A    between atoms: _527  and  _529
REMARK  218  A    between atoms: _529  and  _530
REMARK  219  A    between atoms: _533  and  _535
REMARK  220  A    between atoms: _535  and  _536
REMARK  221  A    between atoms: _535  and  _538
REMARK  222  A    between atoms: _538  and  _539
REMARK  223  A    between atoms: _539  and  _540
REMARK  224  A    between atoms: _540  and  _541
REMARK  225  A    between atoms: _541  and  _542
REMARK  226  A    between atoms: _546  and  _548
REMARK  227  A    between atoms: _548  and  _549
REMARK  228  A    between atoms: _548  and  _551
REMARK  229  A    between atoms: _551  and  _552
REMARK  230  A    between atoms: _555  and  _557
REMARK  231  A    between atoms: _557  and  _558
REMARK  232  A    between atoms: _557  and  _560
REMARK  233  A    between atoms: _560  and  _561
REMARK  234  A    between atoms: _564  and  _566
REMARK  235  A    between atoms: _566  and  _567
REMARK  236  A    between atoms: _566  and  _569
REMARK  237  A    between atoms: _569  and  _570
REMARK  238  A    between atoms: _573  and  _575
REMARK  239  A    between atoms: _575  and  _576
REMARK  240  A    between atoms: _575  and  _578
REMARK  241  A    between atoms: _578  and  _579
REMARK  242  A    between atoms: _585  and  _587
REMARK  243  A    between atoms: _587  and  _588
REMARK  244  A    between atoms: _590  and  _592
REMARK  245  A    between atoms: _592  and  _593
REMARK  246  A    between atoms: _592  and  _595
REMARK  247  A    between atoms: _595  and  _596
REMARK                            x       y       z     vdW  Elec       q    Type
REMARK                         _______ _______ _______ _____ _____    ______ ____
ROOT
ATOM      1  CA  MET A   1       0.653  -3.243   7.375  0.00  0.00    +0.134 C 
ENDROOT
BRANCH   1   2
ATOM      2  N   MET A   1      -0.297  -2.479   6.540  0.00  0.00    -0.239 NA
ATOM      3  H   MET A   1      -0.899  -1.758   6.986  0.00  0.00    +0.142 HD
ENDBRANCH   1   2
BRANCH   1   4
ATOM      4  C   MET A   1       0.164  -4.636   7.772  0.00  0.00    +0.224 C 
ATOM      5  O   MET A   1      -0.793  -4.767   8.550  0.00  0.00    -0.287 OA
ENDBRANCH   1   4
BRANCH   1   6
ATOM      6  CB  MET A   1       0.990  -2.487   8.642  0.00  0.00    +0.037 C 
BRANCH   6   7
ATOM      7  CG  MET A   1       1.369  -1.102   8.328  0.00  0.00    +0.059 C 
BRANCH   7   8
ATOM      8  SD  MET A   1       3.014  -0.843   8.429  0.00  0.00    -0.139 S 
ATOM      9  CE  MET A   1       2.922   0.458   9.626  0.00  0.00    +0.069 C 
ENDBRANCH   7   8
ENDBRANCH   6   7
ENDBRANCH   1   6
TORSDOF 5
REMARK  Name = ../refined-set-2016/2bak/2bak_pocket.pdb
REMARK  247 active torsions:
REMARK  status: ('A' for Active; 'I' for Inactive)
REMARK    1  A    between atoms: _2  and  _3
REMARK    2  A    between atoms: _8  and  _10
REMARK    3  A    between atoms: _10  and  _11
REMARK    4  A    between atoms: _10  and  _13
REMARK    5  A    between atoms: _16  and  _18
REMARK    6  A    between atoms: _18  and  _19
REMARK    7  A    between atoms: _21  and  _23
REMARK    8  A    between atoms: _23  and  _24
REMARK    9  A    between atoms: _23  and  _26
REMARK   10  A    between atoms: _26  and  _27
REMARK   11  A    between atoms: _29  and  _31
REMARK   12  A    between atoms: _31  and  _32
REMARK   13  A    between atoms: _34  and  _36
REMARK   14  A    between atoms: _36  and  _37
REMARK   15  A    between atoms: _36  and  _39
REMARK   16  A    between atoms: _39  and  _40
REMARK   17  A    between atoms: _45  and  _46
REMARK   18  A    between atoms: _48  and  _50
REMARK   19  A    between atoms: _50  and  _51
REMARK   20  A    between atoms: _53  and  _55
REMARK   21  A    between atoms: _55  and  _56
REMARK   22  A    between atoms: _55  and  _58
REMARK   23  A    between atoms: _58  and  _59
REMARK   24  A    between atoms: _61  and  _63
REMARK   25  A    between atoms: _63  and  _64
REMARK   26  A    between atoms: _63  and  _66
REMARK   27  A    between atoms: _69  and  _71
REMARK   28  A    between atoms: _71  and  _72
REMARK   29  A    between atoms: _71  and  _74
REMARK   30  A    between atoms: _76  and  _78
REMARK   31  A    between atoms: _78  and  _79
REMARK   32  A    between atoms: _82  and  _84
REMARK   33  A    between atoms: _84  and  _85
REMARK   34  A    between atoms: _84  and  _87
REMARK   35  A    between atoms: _87  and  _88
REMARK   36  A    between atoms: _88  and  _89
REMARK   37  A    between atoms: _89  and  _90
REMARK   38  A    between atoms: _99  and  _101
REMARK   39  A    between atoms: _101  and  _102
REMARK   40  A    between atoms: _101  and  _104
REMARK   41  A    between atoms: _107  and  _109
REMARK   42  A    between atoms: _109  and  _110
REMARK   43  A    between atoms: _113  and  _115
REMARK   44  A    between atoms: _115  and  _116
REMARK   45  A    between atoms: _115  and  _118
REMARK   46  A    between atoms: _121  and  _123
REMARK   47  A    between atoms: _123  and  _124
REMARK   48  A    between atoms: _123  and  _126
REMARK   49  A    between atoms: _126  and  _127
REMARK   50  A    between atoms: _127  and  _128
REMARK   51  A    between atoms: _128  and  _129
REMARK   52  A    between atoms: _129  and  _130
REMARK   53  A    between atoms: _134  and  _136
REMARK   54  A    between atoms: _136  and  _137
REMARK   55  A    between atoms: _136  and  _139
REMARK   56  A    between atoms: _139  and  _140
REMARK   57  A    between atoms: _140  and  _141
REMARK   58  A    between atoms: _141  and  _142
REMARK   59  A    between atoms: _142  and  _143
REMARK   60  A    between atoms: _147  and  _149
REMARK   61  A    between atoms: _149  and  _150
REMARK   62  A    between atoms: _149  and  _152
REMARK   63  A    between atoms: _152  and  _153
REMARK   64  A    between atoms: _156  and  _158
REMARK   65  A    between atoms: _158  and  _159
REMARK   66  A    between atoms: _158  and  _161
REMARK   67  A    between atoms: _161  and  _162
REMARK   68  A    between atoms: _162  and  _163
REMARK   69  A    between atoms: _163  and  _164
REMARK   70  A    between atoms: _173  and  _175
REMARK   71  A    between atoms: _175  and  _176
REMARK   72  A    between atoms: _175  and  _178
REMARK   73  A    between atoms: _178  and  _179
REMARK   74  A    between atoms: _179  and  _180
REMARK   75  A    between atoms: _180  and  _181
REMARK   76  A    between atoms: _190  and  _192
REMARK   77  A    between atoms: _192  and  _193
REMARK   78  A    between atoms: _192  and  _195
REMARK   79  A    between atoms: _195  and  _196
REMARK   80  A    between atoms: _196  and  _197
REMARK   81  A    between atoms: _200  and  _202
REMARK   82  A    between atoms: _202  and  _203
REMARK   83  A    between atoms: _202  and  _205
REMARK   84  A    between atoms: _205  and  _206
REMARK   85  A    between atoms: _209  and  _211
REMARK   86  A    between atoms: _211  and  _212
REMARK   87  A    between atoms: _211  and  _214
REMARK   88  A    between atoms: _214  and  _215
REMARK   89  A    between atoms: _218  and  _220
REMARK   90  A    between atoms: _220  and  _221
REMARK   91  A    between atoms: _220  and  _223
REMARK   92  A    between atoms: _223  and  _224
REMARK   93  A    between atoms: _227  and  _229
REMARK   94  A    between atoms: _229  and  _230
REMARK   95  A    between atoms: _229  and  _232
REMARK   96  A    between atoms: _232  and  _233
REMARK   97  A    between atoms: _233  and  _234
REMARK   98  A    between atoms: _236  and  _238
REMARK   99  A    between atoms: _238  and  _239
REMARK  100  A    between atoms: _238  and  _241
REMARK  101  A    between atoms: _241  and  _242
REMARK  102  A    between atoms: _247  and  _249
REMARK  103  A    between atoms: _249  and  _250
REMARK  104  A    between atoms: _249  and  _252
REMARK  105  A    between atoms: _255  and  _257
REMARK  106  A    between atoms: _257  and  _258
REMARK  107  A    between atoms: _257  and  _260
REMARK  108  A    between atoms: _260  and  _261
REMARK  109  A    between atoms: _264  and  _266
REMARK  110  A    between atoms: _266  and  _267
REMARK  111  A    between atoms: _269  and  _271
REMARK  112  A    between atoms: _271  and  _272
REMARK  113  A    between atoms: _271  and  _274
REMARK  114  A    between atoms: _274  and  _275
REMARK  115  A    between atoms: _278  and  _280
REMARK  116  A    between atoms: _280  and  _281
REMARK  117  A    between atoms: _280  and  _283
REMARK  118  A    between atoms: _283  and  _284
REMARK  119  A    between atoms: _287  and  _289
REMARK  120  A    between atoms: _289  and  _290
REMARK  121  A    between atoms: _289  and  _292
REMARK  122  A    between atoms: _292  and  _293
REMARK  123  A    between atoms: _296  and  _298
REMARK  124  A    between atoms: _298  and  _299
REMARK  125  A    between atoms: _298  and  _301
REMARK  126  A    between atoms: _301  and  _302
REMARK  127  A    between atoms: _307  and  _308
REMARK  128  A    between atoms: _310  and  _312
REMARK  129  A    between atoms: _312  and  _313
REMARK  130  A    between atoms: _312  and  _315
REMARK  131  A    between atoms: _315  and  _316
REMARK  132  A    between atoms: _319  and  _321
REMARK  133  A    between atoms: _321  and  _322
REMARK  134  A    between atoms: _321  and  _324
REMARK  135  A    between atoms: _327  and  _329
REMARK  136  A    between atoms: _329  and  _330
REMARK  137  A    between atoms: _329  and  _332
REMARK  138  A    between atoms: _332  and  _333
REMARK  139  A    between atoms: _336  and  _338
REMARK  140  A    between atoms: _338  and  _339
REMARK  141  A    between atoms: _338  and  _341
REMARK  142  A    between atoms: _341  and  _342
REMARK  143  A    between atoms: _347  and  _349
REMARK  144  A    between atoms: _349  and  _350
REMARK  145  A    between atoms: _349  and  _352
REMARK  146  A    between atoms: _352  and  _353
REMARK  147  A    between atoms: _356  and  _358
REMARK  148  A    between atoms: _358  and  _359
REMARK  149  A    between atoms: _358  and  _361
REMARK  150  A    between atoms: _361  and  _362
REMARK  151  A    between atoms: _362  and  _363
REMARK  152  A    between atoms: _365  and  _367
REMARK  153  A    between atoms: _367  and  _368
REMARK  154  A    between atoms: _370  and  _372
REMARK  155  A    between atoms: _372  and  _373
REMARK  156  A    between atoms: _376  and  _378
REMARK  157  A    between atoms: _378  and  _379
REMARK  158  A    between atoms: _378  and  _381
REMARK  159  A    between atoms: _381  and  _382
REMARK  160  A    between atoms: _385  and  _387
REMARK  161  A    between atoms: _387  and  _388
REMARK  162  A    between atoms: _387  and  _390
REMARK  163  A    between atoms: _390  and  _391
REMARK  164  A    between atoms: _396  and  _398
REMARK  165  A    between atoms: _398  and  _399
REMARK  166  A    between atoms: _398  and  _401
REMARK  167  A    between atoms: _401  and  _402
REMARK  168  A    between atoms: _407  and  _409
REMARK  169  A    between atoms: _409  and  _410
REMARK  170  A    between atoms: _412  and  _414
REMARK  171  A    between atoms: _414  and  _415
REMARK  172  A    between atoms: _414  and  _417
REMARK  173  A    between atoms: _417  and  _418
REMARK  174  A    between atoms: _421  and  _423
REMARK  175  A    between atoms: _423  and  _424
REMARK  176  A    between atoms: _423  and  _426
REMARK  177  A    between atoms: _426  and  _427
REMARK  178  A    between atoms: _432  and  _433
REMARK  179  A    between atoms: _435  and  _437
REMARK  180  A    between atoms: _437  and  _438
REMARK  181  A    between atoms: _437  and  _440
REMARK  182  A    between atoms: _440  and  _441
REMARK  183  A    between atoms: _444  and  _446
REMARK  184  A    between atoms: _446  and  _447
REMARK  185  A    between atoms: _446  and  _449
REMARK  186  A    between atoms: _449  and  _450
REMARK  187  A    between atoms: _453  and  _455
REMARK  188  A    between atoms: _455  and  _456
REMARK  189  A    between atoms: _455  and  _458
REMARK  190  A    between atoms: _458  and  _459
REMARK  191  A    between atoms: _462  and  _464
REMARK  192  A    between atoms: _464  and  _465
REMARK  193  A    between atoms: _464  and  _467
REMARK  194  A    between atoms: _467  and  _468
REMARK  195  A    between atoms: _473  and  _475
REMARK  196  A    between atoms: _475  and  _476
REMARK  197  A    between atoms: _475  and  _478
REMARK  198  A    between atoms: _478  and  _479
REMARK  199  A    between atoms: _479  and  _480
REMARK  200  A    between atoms: _480  and  _481
REMARK  201  A    between atoms: _490  and  _492
REMARK  202  A    between atoms: _492  and  _493
REMARK  203  A    between atoms: _492  and  _495
REMARK  204  A    between atoms: _495  and  _496
REMARK  205  A    between atoms: _499  and  _501
REMARK  206  A    between atoms: _501  and  _502
REMARK  207  A    between atoms: _501  and  _504
REMARK  208  A    between atoms: _504  and  _505
REMARK  209  A    between atoms: _508  and  _510
REMARK  210  A    between atoms: _510  and  _511
REMARK  211  A    between atoms: _510  and  _513
REMARK  212  A    between atoms: _513  and  _514
REMARK  213  A    between atoms: _516  and  _518
REMARK  214  A    between atoms: _518  and  _519
REMARK  215  A    between atoms: _518  and  _521
REMARK  216  A    between atoms: _521  and  _522
REMARK  217  A    between atoms: _527  and  _529
REMARK  218  A    between atoms: _529  and  _530
REMARK  219  A    between atoms: _533  and  _535
REMARK  220  A    between atoms: _535  and  _536
REMARK  221  A    between atoms: _535  and  _538
REMARK  222  A    between atoms: _538  and  _539
REMARK  223  A    between atoms: _539  and  _540
REMARK  224  A    between atoms: _540  and  _541
REMARK  225  A    between atoms: _541  and  _542
REMARK  226  A    between atoms: _546  and  _548
REMARK  227  A    between atoms: _548  and  _549
REMARK  228  A    between atoms: _548  and  _551
REMARK  229  A    between atoms: _551  and  _552
REMARK  230  A    between atoms: _555  and  _557
REMARK  231  A    between atoms: _557  and  _558
REMARK  232  A    between atoms: _557  and  _560
REMARK  233  A    between atoms: _560  and  _561
REMARK  234  A    between atoms: _564  and  _566
REMARK  235  A    between atoms: _566  and  _567
REMARK  236  A    between atoms: _566  and  _569
REMARK  237  A    between atoms: _569  and  _570
REMARK  238  A    between atoms: _573  and  _575
REMARK  239  A    between atoms: _575  and  _576
REMARK  240  A    between atoms: _575  and  _578
REMARK  241  A    between atoms: _578  and  _579
REMARK  242  A    between atoms: _585  and  _587
REMARK  243  A    between atoms: _587  and  _588
REMARK  244  A    between atoms: _590  and  _592
REMARK  245  A    between atoms: _592  and  _593
REMARK  246  A    between atoms: _592  and  _595
REMARK  247  A    between atoms: _595  and  _596
REMARK                            x       y       z     vdW  Elec       q    Type
REMARK                         _______ _______ _______ _____ _____    ______ ____
ROOT
ATOM      1  C   ILE A   3      -0.479  -3.596  13.151  0.00  0.00    +0.241 C 
ATOM      2  N   GLY A   4      -1.578  -4.324  13.140  0.00  0.00    -0.295 N 
ATOM      3  H   GLY A   4      -1.885  -4.781  14.022  0.00  0.00    +0.150 HD
ATOM      4  O   ILE A   3      -0.080  -3.008  12.181  0.00  0.00    -0.273 OA
ENDROOT
BRANCH   2   5
ATOM      5  CA  GLY A   4      -2.377  -4.512  11.940  0.00  0.00    +0.176 C 
BRANCH   5   6
ATOM      6  C   GLY A   4      -3.856  -4.301  12.230  0.00  0.00    +0.243 C 
ATOM      7  O   GLY A   4      -4.308  -4.406  13.384  0.00  0.00    -0.273 OA
ATOM      8  N   LEU A   5      -4.612  -4.037  11.174  0.00  0.00    -0.297 N 
ATOM      9  H   LEU A   5      -4.224  -4.191  10.222  0.00  0.00    +0.150 HD
BRANCH   8  10
ATOM     10  CA  LEU A   5      -5.979  -3.534  11.313  0.00  0.00    +0.149 C 
BRANCH  10  11
ATOM     11  C   LEU A   5      -6.966  -4.684  11.161  0.00  0.00    +0.241 C 
ATOM     12  N   LEU A   6      -7.639  -5.004  12.277  0.00  0.00    -0.297 N 
ATOM     13  H   LEU A   6      -7.408  -4.508  13.161  0.00  0.00    +0.150 HD
ATOM     14  O   LEU A   5      -7.076  -5.286  10.072  0.00  0.00    -0.273 OA
BRANCH  12  15
ATOM     15  CA  LEU A   6      -8.686  -6.025  12.295  0.00  0.00    +0.149 C 
BRANCH  15  16
ATOM     16  C   LEU A   6      -9.982  -5.529  11.652  0.00  0.00    +0.241 C 
ATOM     17  N   ASP A   7     -10.281  -4.251  11.835  0.00  0.00    -0.298 N 
ATOM     18  H   ASP A   7      -9.593  -3.633  12.311  0.00  0.00    +0.150 HD
ATOM     19  O   LEU A   6     -10.680  -6.277  10.992  0.00  0.00    -0.273 OA
BRANCH  17  20
ATOM     20  CA  ASP A   7     -11.550  -3.690  11.386  0.00  0.00    +0.148 C 
BRANCH  20  21
ATOM     21  C   ASP A   7     -11.546  -2.170  11.536  0.00  0.00    +0.227 C 
ATOM     22  O   ASP A   7     -10.832  -1.610  12.360  0.00  0.00    -0.286 OA
ENDBRANCH  20  21
BRANCH  20  23
ATOM     23  CB  ASP A   7     -12.698  -4.313  12.195  0.00  0.00    +0.142 C 
BRANCH  23  24
ATOM     24  CG  ASP A   7     -14.081  -3.959  11.673  0.00  0.00    +0.367 C 
ATOM     25  OD2 ASP A   7     -15.071  -4.047  12.434  0.00  0.00    -0.246 OA
ATOM     26  OD1 ASP A   7     -14.246  -3.603  10.472  0.00  0.00    -0.246 OA
ENDBRANCH  23  24
ENDBRANCH  20  23
ENDBRANCH  17  20
ENDBRANCH  15  16
BRANCH  15  27
ATOM     27  CB  LEU A   6      -8.986  -6.462  13.735  0.00  0.00    +0.029 C 
BRANCH  27  28
ATOM     28  CG  LEU A   6      -7.928  -7.331  14.428  0.00  0.00    +0.002 C 
ATOM     29  CD2 LEU A   6      -8.503  -7.912  15.727  0.00  0.00    +0.000 C 
ATOM     30  CD1 LEU A   6      -7.420  -8.455  13.519  0.00  0.00    +0.000 C 
ENDBRANCH  27  28
ENDBRANCH  15  27
ENDBRANCH  12  15
ENDBRANCH  10  11
BRANCH  10  31
ATOM     31  CB  LEU A   5      -6.243  -2.447  10.287  0.00  0.00    +0.029 C 
BRANCH  31  32
ATOM     32  CG  LEU A   5      -7.537  -1.647  10.431  0.00  0.00    +0.002 C 
ATOM     33  CD2 LEU A   5      -7.493  -0.746  11.646  0.00  0.00    +0.000 C 
ATOM     34  CD1 LEU A   5      -7.779  -0.789   9.140  0.00  0.00    +0.000 C 
ENDBRANCH  31  32
ENDBRANCH  10  31
ENDBRANCH   8  10
ENDBRANCH   5   6
ENDBRANCH   2   5
BRANCH   1  35
ATOM     35  CA  ILE A   3       0.280  -3.552  14.473  0.00  0.00    +0.149 C 
BRANCH  35  37
ATOM     36  C   VAL A   2       2.267  -4.636  13.562  0.00  0.00    +0.241 C 
ATOM     37  N   ILE A   3       1.731  -3.632  14.271  0.00  0.00    -0.297 N 
ATOM     38  H   ILE A   3       2.349  -2.903  14.681  0.00  0.00    +0.150 HD
ATOM     39  O   VAL A   2       1.597  -5.578  13.113  0.00  0.00    -0.273 OA
BRANCH  36  40
ATOM     40  CA  VAL A   2       3.764  -4.582  13.321  0.00  0.00    +0.148 C 
BRANCH  40  43
ATOM     41  C   ASN A   1       5.423  -6.064  14.340  0.00  0.00    +0.239 C 
ATOM     42  O   ASN A   1       5.975  -5.118  14.927  0.00  0.00    -0.274 OA
ATOM     43  N   VAL A   2       4.377  -5.894  13.527  0.00  0.00    -0.297 N 
ATOM     44  H   VAL A   2       3.987  -6.718  13.026  0.00  0.00    +0.150 HD
BRANCH  41  45
ATOM     45  CA  ASN A   1       5.919  -7.505  14.545  0.00  0.00    +0.154 C 
BRANCH  45  46
ATOM     46  N   ASN A   1       5.323  -8.421  13.577  0.00  0.00    -0.238 NA
ATOM     47  H   ASN A   1       5.645  -8.386  12.589  0.00  0.00    +0.142 HD
ENDBRANCH  45  46
BRANCH  45  48
ATOM     48  CB  ASN A   1       7.469  -7.575  14.516  0.00  0.00    +0.111 C 
BRANCH  48  49
ATOM     49  CG  ASN A   1       8.017  -9.007  14.669  0.00  0.00    +0.221 C 
ATOM     50  ND2 ASN A   1       7.715  -9.645  15.777  0.00  0.00    -0.329 N 
ATOM     51 HD21 ASN A   1       7.145  -9.175  16.509  0.00  0.00    +0.145 HD
ATOM     52 HD22 ASN A   1       8.046 -10.620  15.922  0.00  0.00    +0.145 HD
ATOM     53  OD1 ASN A   1       8.695  -9.525  13.766  0.00  0.00    -0.275 OA
ENDBRANCH  48  49
ENDBRANCH  45  48
ENDBRANCH  41  45
ENDBRANCH  40  43
BRANCH  40  54
ATOM     54  CB  VAL A   2       4.024  -4.063  11.901  0.00  0.00    +0.027 C 
ATOM     55  CG2 VAL A   2       3.386  -2.652  11.676  0.00  0.00    +0.002 C 
ATOM     56  CG1 VAL A   2       5.555  -4.021  11.606  0.00  0.00    +0.002 C 
ENDBRANCH  40  54
ENDBRANCH  36  40
ENDBRANCH  35  37
BRANCH  35  57
ATOM     57  CB  ILE A   3      -0.159  -2.311  15.262  0.00  0.00    +0.027 C 
ATOM     58  CG2 ILE A   3      -0.088  -1.082  14.418  0.00  0.00    +0.002 C 
BRANCH  57  59
ATOM     59  CG1 ILE A   3      -1.584  -2.539  15.803  0.00  0.00    +0.002 C 
ATOM     60  CD1 ILE A   3      -1.910  -1.696  17.035  0.00  0.00    +0.000 C 
ENDBRANCH  57  59
ENDBRANCH  35  57
ENDBRANCH   1  35
TORSDOF 25
REMARK  Name = ../refined-set-2016/2bak/2bak_pocket.pdb
REMARK  247 active torsions:
REMARK  status: ('A' for Active; 'I' for Inactive)
REMARK    1  A    between atoms: _2  and  _3
REMARK    2  A    between atoms: _8  and  _10
REMARK    3  A    between atoms: _10  and  _11
REMARK    4  A    between atoms: _10  and  _13
REMARK    5  A    between atoms: _16  and  _18
REMARK    6  A    between atoms: _18  and  _19
REMARK    7  A    between atoms: _21  and  _23
REMARK    8  A    between atoms: _23  and  _24
REMARK    9  A    between atoms: _23  and  _26
REMARK   10  A    between atoms: _26  and  _27
REMARK   11  A    between atoms: _29  and  _31
REMARK   12  A    between atoms: _31  and  _32
REMARK   13  A    between atoms: _34  and  _36
REMARK   14  A    between atoms: _36  and  _37
REMARK   15  A    between atoms: _36  and  _39
REMARK   16  A    between atoms: _39  and  _40
REMARK   17  A    between atoms: _45  and  _46
REMARK   18  A    between atoms: _48  and  _50
REMARK   19  A    between atoms: _50  and  _51
REMARK   20  A    between atoms: _53  and  _55
REMARK   21  A    between atoms: _55  and  _56
REMARK   22  A    between atoms: _55  and  _58
REMARK   23  A    between atoms: _58  and  _59
REMARK   24  A    between atoms: _61  and  _63
REMARK   25  A    between atoms: _63  and  _64
REMARK   26  A    between atoms: _63  and  _66
REMARK   27  A    between atoms: _69  and  _71
REMARK   28  A    between atoms: _71  and  _72
REMARK   29  A    between atoms: _71  and  _74
REMARK   30  A    between atoms: _76  and  _78
REMARK   31  A    between atoms: _78  and  _79
REMARK   32  A    between atoms: _82  and  _84
REMARK   33  A    between atoms: _84  and  _85
REMARK   34  A    between atoms: _84  and  _87
REMARK   35  A    between atoms: _87  and  _88
REMARK   36  A    between atoms: _88  and  _89
REMARK   37  A    between atoms: _89  and  _90
REMARK   38  A    between atoms: _99  and  _101
REMARK   39  A    between atoms: _101  and  _102
REMARK   40  A    between atoms: _101  and  _104
REMARK   41  A    between atoms: _107  and  _109
REMARK   42  A    between atoms: _109  and  _110
REMARK   43  A    between atoms: _113  and  _115
REMARK   44  A    between atoms: _115  and  _116
REMARK   45  A    between atoms: _115  and  _118
REMARK   46  A    between atoms: _121  and  _123
REMARK   47  A    between atoms: _123  and  _124
REMARK   48  A    between atoms: _123  and  _126
REMARK   49  A    between atoms: _126  and  _127
REMARK   50  A    between atoms: _127  and  _128
REMARK   51  A    between atoms: _128  and  _129
REMARK   52  A    between atoms: _129  and  _130
REMARK   53  A    between atoms: _134  and  _136
REMARK   54  A    between atoms: _136  and  _137
REMARK   55  A    between atoms: _136  and  _139
REMARK   56  A    between atoms: _139  and  _140
REMARK   57  A    between atoms: _140  and  _141
REMARK   58  A    between atoms: _141  and  _142
REMARK   59  A    between atoms: _142  and  _143
REMARK   60  A    between atoms: _147  and  _149
REMARK   61  A    between atoms: _149  and  _150
REMARK   62  A    between atoms: _149  and  _152
REMARK   63  A    between atoms: _152  and  _153
REMARK   64  A    between atoms: _156  and  _158
REMARK   65  A    between atoms: _158  and  _159
REMARK   66  A    between atoms: _158  and  _161
REMARK   67  A    between atoms: _161  and  _162
REMARK   68  A    between atoms: _162  and  _163
REMARK   69  A    between atoms: _163  and  _164
REMARK   70  A    between atoms: _173  and  _175
REMARK   71  A    between atoms: _175  and  _176
REMARK   72  A    between atoms: _175  and  _178
REMARK   73  A    between atoms: _178  and  _179
REMARK   74  A    between atoms: _179  and  _180
REMARK   75  A    between atoms: _180  and  _181
REMARK   76  A    between atoms: _190  and  _192
REMARK   77  A    between atoms: _192  and  _193
REMARK   78  A    between atoms: _192  and  _195
REMARK   79  A    between atoms: _195  and  _196
REMARK   80  A    between atoms: _196  and  _197
REMARK   81  A    between atoms: _200  and  _202
REMARK   82  A    between atoms: _202  and  _203
REMARK   83  A    between atoms: _202  and  _205
REMARK   84  A    between atoms: _205  and  _206
REMARK   85  A    between atoms: _209  and  _211
REMARK   86  A    between atoms: _211  and  _212
REMARK   87  A    between atoms: _211  and  _214
REMARK   88  A    between atoms: _214  and  _215
REMARK   89  A    between atoms: _218  and  _220
REMARK   90  A    between atoms: _220  and  _221
REMARK   91  A    between atoms: _220  and  _223
REMARK   92  A    between atoms: _223  and  _224
REMARK   93  A    between atoms: _227  and  _229
REMARK   94  A    between atoms: _229  and  _230
REMARK   95  A    between atoms: _229  and  _232
REMARK   96  A    between atoms: _232  and  _233
REMARK   97  A    between atoms: _233  and  _234
REMARK   98  A    between atoms: _236  and  _238
REMARK   99  A    between atoms: _238  and  _239
REMARK  100  A    between atoms: _238  and  _241
REMARK  101  A    between atoms: _241  and  _242
REMARK  102  A    between atoms: _247  and  _249
REMARK  103  A    between atoms: _249  and  _250
REMARK  104  A    between atoms: _249  and  _252
REMARK  105  A    between atoms: _255  and  _257
REMARK  106  A    between atoms: _257  and  _258
REMARK  107  A    between atoms: _257  and  _260
REMARK  108  A    between atoms: _260  and  _261
REMARK  109  A    between atoms: _264  and  _266
REMARK  110  A    between atoms: _266  and  _267
REMARK  111  A    between atoms: _269  and  _271
REMARK  112  A    between atoms: _271  and  _272
REMARK  113  A    between atoms: _271  and  _274
REMARK  114  A    between atoms: _274  and  _275
REMARK  115  A    between atoms: _278  and  _280
REMARK  116  A    between atoms: _280  and  _281
REMARK  117  A    between atoms: _280  and  _283
REMARK  118  A    between atoms: _283  and  _284
REMARK  119  A    between atoms: _287  and  _289
REMARK  120  A    between atoms: _289  and  _290
REMARK  121  A    between atoms: _289  and  _292
REMARK  122  A    between atoms: _292  and  _293
REMARK  123  A    between atoms: _296  and  _298
REMARK  124  A    between atoms: _298  and  _299
REMARK  125  A    between atoms: _298  and  _301
REMARK  126  A    between atoms: _301  and  _302
REMARK  127  A    between atoms: _307  and  _308
REMARK  128  A    between atoms: _310  and  _312
REMARK  129  A    between atoms: _312  and  _313
REMARK  130  A    between atoms: _312  and  _315
REMARK  131  A    between atoms: _315  and  _316
REMARK  132  A    between atoms: _319  and  _321
REMARK  133  A    between atoms: _321  and  _322
REMARK  134  A    between atoms: _321  and  _324
REMARK  135  A    between atoms: _327  and  _329
REMARK  136  A    between atoms: _329  and  _330
REMARK  137  A    between atoms: _329  and  _332
REMARK  138  A    between atoms: _332  and  _333
REMARK  139  A    between atoms: _336  and  _338
REMARK  140  A    between atoms: _338  and  _339
REMARK  141  A    between atoms: _338  and  _341
REMARK  142  A    between atoms: _341  and  _342
REMARK  143  A    between atoms: _347  and  _349
REMARK  144  A    between atoms: _349  and  _350
REMARK  145  A    between atoms: _349  and  _352
REMARK  146  A    between atoms: _352  and  _353
REMARK  147  A    between atoms: _356  and  _358
REMARK  148  A    between atoms: _358  and  _359
REMARK  149  A    between atoms: _358  and  _361
REMARK  150  A    between atoms: _361  and  _362
REMARK  151  A    between atoms: _362  and  _363
REMARK  152  A    between atoms: _365  and  _367
REMARK  153  A    between atoms: _367  and  _368
REMARK  154  A    between atoms: _370  and  _372
REMARK  155  A    between atoms: _372  and  _373
REMARK  156  A    between atoms: _376  and  _378
REMARK  157  A    between atoms: _378  and  _379
REMARK  158  A    between atoms: _378  and  _381
REMARK  159  A    between atoms: _381  and  _382
REMARK  160  A    between atoms: _385  and  _387
REMARK  161  A    between atoms: _387  and  _388
REMARK  162  A    between atoms: _387  and  _390
REMARK  163  A    between atoms: _390  and  _391
REMARK  164  A    between atoms: _396  and  _398
REMARK  165  A    between atoms: _398  and  _399
REMARK  166  A    between atoms: _398  and  _401
REMARK  167  A    between atoms: _401  and  _402
REMARK  168  A    between atoms: _407  and  _409
REMARK  169  A    between atoms: _409  and  _410
REMARK  170  A    between atoms: _412  and  _414
REMARK  171  A    between atoms: _414  and  _415
REMARK  172  A    between atoms: _414  and  _417
REMARK  173  A    between atoms: _417  and  _418
REMARK  174  A    between atoms: _421  and  _423
REMARK  175  A    between atoms: _423  and  _424
REMARK  176  A    between atoms: _423  and  _426
REMARK  177  A    between atoms: _426  and  _427
REMARK  178  A    between atoms: _432  and  _433
REMARK  179  A    between atoms: _435  and  _437
REMARK  180  A    between atoms: _437  and  _438
REMARK  181  A    between atoms: _437  and  _440
REMARK  182  A    between atoms: _440  and  _441
REMARK  183  A    between atoms: _444  and  _446
REMARK  184  A    between atoms: _446  and  _447
REMARK  185  A    between atoms: _446  and  _449
REMARK  186  A    between atoms: _449  and  _450
REMARK  187  A    between atoms: _453  and  _455
REMARK  188  A    between atoms: _455  and  _456
REMARK  189  A    between atoms: _455  and  _458
REMARK  190  A    between atoms: _458  and  _459
REMARK  191  A    between atoms: _462  and  _464
REMARK  192  A    between atoms: _464  and  _465
REMARK  193  A    between atoms: _464  and  _467
REMARK  194  A    between atoms: _467  and  _468
REMARK  195  A    between atoms: _473  and  _475
REMARK  196  A    between atoms: _475  and  _476
REMARK  197  A    between atoms: _475  and  _478
REMARK  198  A    between atoms: _478  and  _479
REMARK  199  A    between atoms: _479  and  _480
REMARK  200  A    between atoms: _480  and  _481
REMARK  201  A    between atoms: _490  and  _492
REMARK  202  A    between atoms: _492  and  _493
REMARK  203  A    between atoms: _492  and  _495
REMARK  204  A    between atoms: _495  and  _496
REMARK  205  A    between atoms: _499  and  _501
REMARK  206  A    between atoms: _501  and  _502
REMARK  207  A    between atoms: _501  and  _504
REMARK  208  A    between atoms: _504  and  _505
REMARK  209  A    between atoms: _508  and  _510
REMARK  210  A    between atoms: _510  and  _511
REMARK  211  A    between atoms: _510  and  _513
REMARK  212  A    between atoms: _513  and  _514
REMARK  213  A    between atoms: _516  and  _518
REMARK  214  A    between atoms: _518  and  _519
REMARK  215  A    between atoms: _518  and  _521
REMARK  216  A    between atoms: _521  and  _522
REMARK  217  A    between atoms: _527  and  _529
REMARK  218  A    between atoms: _529  and  _530
REMARK  219  A    between atoms: _533  and  _535
REMARK  220  A    between atoms: _535  and  _536
REMARK  221  A    between atoms: _535  and  _538
REMARK  222  A    between atoms: _538  and  _539
REMARK  223  A    between atoms: _539  and  _540
REMARK  224  A    between atoms: _540  and  _541
REMARK  225  A    between atoms: _541  and  _542
REMARK  226  A    between atoms: _546  and  _548
REMARK  227  A    between atoms: _548  and  _549
REMARK  228  A    between atoms: _548  and  _551
REMARK  229  A    between atoms: _551  and  _552
REMARK  230  A    between atoms: _555  and  _557
REMARK  231  A    between atoms: _557  and  _558
REMARK  232  A    between atoms: _557  and  _560
REMARK  233  A    between atoms: _560  and  _561
REMARK  234  A    between atoms: _564  and  _566
REMARK  235  A    between atoms: _566  and  _567
REMARK  236  A    between atoms: _566  and  _569
REMARK  237  A    between atoms: _569  and  _570
REMARK  238  A    between atoms: _573  and  _575
REMARK  239  A    between atoms: _575  and  _576
REMARK  240  A    between atoms: _575  and  _578
REMARK  241  A    between atoms: _578  and  _579
REMARK  242  A    between atoms: _585  and  _587
REMARK  243  A    between atoms: _587  and  _588
REMARK  244  A    between atoms: _590  and  _592
REMARK  245  A    between atoms: _592  and  _593
REMARK  246  A    between atoms: _592  and  _595
REMARK  247  A    between atoms: _595  and  _596
REMARK                            x       y       z     vdW  Elec       q    Type
REMARK                         _______ _______ _______ _____ _____    ______ ____
ROOT
ATOM      1  CA  HIS A   5      -5.508  -6.911  18.682  0.00  0.00    +0.155 C 
ENDROOT
BRANCH   1   2
ATOM      2  C   HIS A   5      -5.178  -6.148  19.975  0.00  0.00    +0.241 C 
ATOM      3  N   LEU A   6      -5.688  -6.615  21.106  0.00  0.00    -0.297 N 
ATOM      4  H   LEU A   6      -6.240  -7.496  21.093  0.00  0.00    +0.150 HD
ATOM      5  O   HIS A   5      -4.472  -5.138  19.932  0.00  0.00    -0.273 OA
BRANCH   3   6
ATOM      6  CA  LEU A   6      -5.485  -5.908  22.375  0.00  0.00    +0.149 C 
BRANCH   6   7
ATOM      7  C   LEU A   6      -4.100  -6.182  22.951  0.00  0.00    +0.241 C 
ATOM      8  O   LEU A   6      -3.807  -7.287  23.394  0.00  0.00    -0.273 OA
ATOM      9  N   MET A   7      -3.260  -5.163  22.965  0.00  0.00    -0.297 N 
ATOM     10  H   MET A   7      -3.551  -4.256  22.548  0.00  0.00    +0.150 HD
BRANCH   9  11
ATOM     11  CA  MET A   7      -1.932  -5.288  23.555  0.00  0.00    +0.149 C 
BRANCH  11  12
ATOM     12  C   MET A   7      -2.050  -5.158  25.059  0.00  0.00    +0.241 C 
ATOM     13  N   GLY A   8      -1.208  -5.865  25.789  0.00  0.00    -0.295 N 
ATOM     14  H   GLY A   8      -0.547  -6.519  25.322  0.00  0.00    +0.150 HD
ATOM     15  O   MET A   7      -2.888  -4.436  25.549  0.00  0.00    -0.273 OA
BRANCH  13  16
ATOM     16  CA  GLY A   8      -1.192  -5.742  27.236  0.00  0.00    +0.176 C 
BRANCH  16  17
ATOM     17  C   GLY A   8      -0.226  -4.646  27.667  0.00  0.00    +0.243 C 
ATOM     18  N   ALA A   9       0.978  -5.057  28.011  0.00  0.00    -0.297 N 
ATOM     19  H   ALA A   9       1.248  -6.043  27.821  0.00  0.00    +0.150 HD
ATOM     20  O   GLY A   8      -0.544  -3.454  27.661  0.00  0.00    -0.273 OA
BRANCH  18  21
ATOM     21  CA  ALA A   9       1.936  -4.176  28.646  0.00  0.00    +0.149 C 
ATOM     22  CB  ALA A   9       2.544  -4.870  29.872  0.00  0.00    +0.031 C 
BRANCH  21  23
ATOM     23  C   ALA A   9       3.021  -3.792  27.654  0.00  0.00    +0.241 C 
ATOM     24  N   ASP A  10       3.459  -2.540  27.722  0.00  0.00    -0.298 N 
ATOM     25  H   ASP A  10       3.031  -1.893  28.415  0.00  0.00    +0.150 HD
ATOM     26  O   ALA A   9       3.448  -4.614  26.851  0.00  0.00    -0.273 OA
BRANCH  24  27
ATOM     27  CA  ASP A  10       4.518  -2.046  26.859  0.00  0.00    +0.148 C 
BRANCH  27  28
ATOM     28  C   ASP A  10       5.906  -2.412  27.434  0.00  0.00    +0.227 C 
ATOM     29  O   ASP A  10       6.009  -2.919  28.539  0.00  0.00    -0.286 OA
ENDBRANCH  27  28
BRANCH  27  30
ATOM     30  CB  ASP A  10       4.335  -0.534  26.602  0.00  0.00    +0.142 C 
BRANCH  30  31
ATOM     31  CG  ASP A  10       4.527   0.323  27.852  0.00  0.00    +0.367 C 
ATOM     32  OD2 ASP A  10       5.376  -0.033  28.680  0.00  0.00    -0.246 OA
ATOM     33  OD1 ASP A  10       3.881   1.373  28.098  0.00  0.00    -0.246 OA
ENDBRANCH  30  31
ENDBRANCH  27  30
ENDBRANCH  24  27
ENDBRANCH  21  23
ENDBRANCH  18  21
ENDBRANCH  16  17
ENDBRANCH  13  16
ENDBRANCH  11  12
BRANCH  11  34
ATOM     34  CB  MET A   7      -0.989  -4.211  23.010  0.00  0.00    +0.041 C 
BRANCH  34  35
ATOM     35  CG  MET A   7      -0.781  -4.252  21.499  0.00  0.00    +0.060 C 
BRANCH  35  36
ATOM     36  SD  MET A   7      -0.710  -5.909  20.813  0.00  0.00    -0.139 S 
ATOM     37  CE  MET A   7       0.832  -6.497  21.277  0.00  0.00    +0.069 C 
ENDBRANCH  35  36
ENDBRANCH  34  35
ENDBRANCH  11  34
ENDBRANCH   9  11
ENDBRANCH   6   7
BRANCH   6  38
ATOM     38  CB  LEU A   6      -6.543  -6.282  23.446  0.00  0.00    +0.029 C 
BRANCH  38  39
ATOM     39  CG  LEU A   6      -6.345  -5.607  24.824  0.00  0.00    +0.002 C 
ATOM     40  CD2 LEU A   6      -7.232  -6.168  25.935  0.00  0.00    +0.000 C 
ATOM     41  CD1 LEU A   6      -6.547  -4.090  24.768  0.00  0.00    +0.000 C 
ENDBRANCH  38  39
ENDBRANCH   6  38
ENDBRANCH   3   6
ENDBRANCH   1   2
BRANCH   1  44
ATOM     42  C   THR A   4      -6.723  -5.015  17.652  0.00  0.00    +0.243 C 
ATOM     43  O   THR A   4      -7.557  -4.957  18.558  0.00  0.00    -0.273 OA
ATOM     44  N   HIS A   5      -5.751  -5.947  17.599  0.00  0.00    -0.297 N 
ATOM     45  H   HIS A   5      -5.146  -5.986  16.754  0.00  0.00    +0.150 HD
BRANCH  42  46
ATOM     46  CA  THR A   4      -6.773  -3.995  16.508  0.00  0.00    +0.176 C 
BRANCH  46  48
ATOM     47  C   VAL A   3      -8.696  -2.817  15.518  0.00  0.00    +0.241 C 
ATOM     48  N   THR A   4      -7.987  -3.163  16.595  0.00  0.00    -0.295 N 
ATOM     49  H   THR A   4      -8.303  -2.834  17.530  0.00  0.00    +0.150 HD
ATOM     50  O   VAL A   3      -8.332  -3.074  14.380  0.00  0.00    -0.273 OA
BRANCH  47  51
ATOM     51  CA  VAL A   3     -10.001  -2.026  15.759  0.00  0.00    +0.149 C 
BRANCH  51  54
ATOM     52  C   LEU A   2     -10.166   0.404  15.373  0.00  0.00    +0.241 C 
ATOM     53  O   LEU A   2     -10.176   0.622  16.552  0.00  0.00    -0.273 OA
ATOM     54  N   VAL A   3     -10.074  -0.832  14.886  0.00  0.00    -0.297 N 
ATOM     55  H   VAL A   3     -10.053  -0.964  13.855  0.00  0.00    +0.150 HD
BRANCH  52  56
ATOM     56  CA  LEU A   2     -10.261   1.566  14.378  0.00  0.00    +0.149 C 
BRANCH  56  58
ATOM     57  C   TYR A   1     -12.389   2.736  14.165  0.00  0.00    +0.239 C 
ATOM     58  N   LEU A   2     -11.268   2.509  14.835  0.00  0.00    -0.297 N 
ATOM     59  H   LEU A   2     -11.103   3.026  15.722  0.00  0.00    +0.150 HD
ATOM     60  O   TYR A   1     -12.695   2.111  13.129  0.00  0.00    -0.274 OA
BRANCH  57  61
ATOM     61  CA  TYR A   1     -13.333   3.778  14.772  0.00  0.00    +0.149 C 
BRANCH  61  62
ATOM     62  N   TYR A   1     -13.759   4.740  13.759  0.00  0.00    -0.238 NA
ATOM     63  H   TYR A   1     -14.143   4.372  12.866  0.00  0.00    +0.142 HD
ENDBRANCH  61  62
BRANCH  61  64
ATOM     64  CB  TYR A   1     -14.533   3.014  15.350  0.00  0.00    +0.053 C 
BRANCH  64  65
ATOM     65  CG  TYR A   1     -15.498   3.821  16.163  0.00  0.00    -0.020 A 
ATOM     66  CD2 TYR A   1     -15.473   3.783  17.555  0.00  0.00    -0.001 A 
ATOM     67  CE2 TYR A   1     -16.399   4.525  18.313  0.00  0.00    +0.036 A 
ATOM     68  CZ  TYR A   1     -17.360   5.310  17.655  0.00  0.00    +0.134 A 
ATOM     69  CE1 TYR A   1     -17.388   5.350  16.266  0.00  0.00    +0.036 A 
ATOM     70  CD1 TYR A   1     -16.476   4.612  15.536  0.00  0.00    -0.001 A 
BRANCH  68  71
ATOM     71  OH  TYR A   1     -18.307   6.054  18.360  0.00  0.00    -0.506 OA
ATOM     72  HH  TYR A   1     -18.890   6.535  17.720  0.00  0.00    +0.292 HD
ENDBRANCH  68  71
ENDBRANCH  64  65
ENDBRANCH  61  64
ENDBRANCH  57  61
ENDBRANCH  56  58
BRANCH  56  73
ATOM     73  CB  LEU A   2      -8.917   2.281  14.244  0.00  0.00    +0.029 C 
BRANCH  73  74
ATOM     74  CG  LEU A   2      -8.846   3.548  13.386  0.00  0.00    +0.002 C 
ATOM     75  CD2 LEU A   2      -7.469   4.196  13.450  0.00  0.00    +0.000 C 
ATOM     76  CD1 LEU A   2      -9.186   3.244  11.949  0.00  0.00    +0.000 C 
ENDBRANCH  73  74
ENDBRANCH  56  73
ENDBRANCH  52  56
ENDBRANCH  51  54
BRANCH  51  77
ATOM     77  CB  VAL A   3     -11.241  -2.980  15.583  0.00  0.00    +0.027 C 
ATOM     78  CG2 VAL A   3     -11.274  -4.057  16.693  0.00  0.00    +0.002 C 
ATOM     79  CG1 VAL A   3     -12.547  -2.199  15.617  0.00  0.00    +0.002 C 
ENDBRANCH  51  77
ENDBRANCH  47  51
ENDBRANCH  46  48
BRANCH  46  80
ATOM     80  CB  THR A   4      -5.486  -3.126  16.545  0.00  0.00    +0.137 C 
ATOM     81  CG2 THR A   4      -5.591  -1.888  15.657  0.00  0.00    +0.034 C 
BRANCH  80  82
ATOM     82  OG1 THR A   4      -5.317  -2.549  17.847  0.00  0.00    -0.382 OA
ATOM     83  HG1 THR A   4      -4.495  -1.998  17.858  0.00  0.00    +0.210 HD
ENDBRANCH  80  82
ENDBRANCH  46  80
ENDBRANCH  42  46
ENDBRANCH   1  44
BRANCH   1  84
ATOM     84  CB  HIS A   5      -4.346  -7.864  18.336  0.00  0.00    +0.076 C 
BRANCH  84  85
ATOM     85  CG  HIS A   5      -4.678  -8.878  17.286  0.00  0.00    +0.082 A 
ATOM     86  ND1 HIS A   5      -5.327 -10.059  17.569  0.00  0.00    -0.227 NA
ATOM     87  CE1 HIS A   5      -5.507 -10.739  16.450  0.00  0.00    +0.199 A 
ATOM     88  NE2 HIS A   5      -4.982 -10.051  15.452  0.00  0.00    -0.221 NA
ATOM     89  CD2 HIS A   5      -4.456  -8.884  15.949  0.00  0.00    +0.115 A 
ENDBRANCH  84  85
ENDBRANCH   1  84
TORSDOF 37
REMARK  Name = ../refined-set-2016/2bak/2bak_pocket.pdb
REMARK  247 active torsions:
REMARK  status: ('A' for Active; 'I' for Inactive)
REMARK    1  A    between atoms: _2  and  _3
REMARK    2  A    between atoms: _8  and  _10
REMARK    3  A    between atoms: _10  and  _11
REMARK    4  A    between atoms: _10  and  _13
REMARK    5  A    between atoms: _16  and  _18
REMARK    6  A    between atoms: _18  and  _19
REMARK    7  A    between atoms: _21  and  _23
REMARK    8  A    between atoms: _23  and  _24
REMARK    9  A    between atoms: _23  and  _26
REMARK   10  A    between atoms: _26  and  _27
REMARK   11  A    between atoms: _29  and  _31
REMARK   12  A    between atoms: _31  and  _32
REMARK   13  A    between atoms: _34  and  _36
REMARK   14  A    between atoms: _36  and  _37
REMARK   15  A    between atoms: _36  and  _39
REMARK   16  A    between atoms: _39  and  _40
REMARK   17  A    between atoms: _45  and  _46
REMARK   18  A    between atoms: _48  and  _50
REMARK   19  A    between atoms: _50  and  _51
REMARK   20  A    between atoms: _53  and  _55
REMARK   21  A    between atoms: _55  and  _56
REMARK   22  A    between atoms: _55  and  _58
REMARK   23  A    between atoms: _58  and  _59
REMARK   24  A    between atoms: _61  and  _63
REMARK   25  A    between atoms: _63  and  _64
REMARK   26  A    between atoms: _63  and  _66
REMARK   27  A    between atoms: _69  and  _71
REMARK   28  A    between atoms: _71  and  _72
REMARK   29  A    between atoms: _71  and  _74
REMARK   30  A    between atoms: _76  and  _78
REMARK   31  A    between atoms: _78  and  _79
REMARK   32  A    between atoms: _82  and  _84
REMARK   33  A    between atoms: _84  and  _85
REMARK   34  A    between atoms: _84  and  _87
REMARK   35  A    between atoms: _87  and  _88
REMARK   36  A    between atoms: _88  and  _89
REMARK   37  A    between atoms: _89  and  _90
REMARK   38  A    between atoms: _99  and  _101
REMARK   39  A    between atoms: _101  and  _102
REMARK   40  A    between atoms: _101  and  _104
REMARK   41  A    between atoms: _107  and  _109
REMARK   42  A    between atoms: _109  and  _110
REMARK   43  A    between atoms: _113  and  _115
REMARK   44  A    between atoms: _115  and  _116
REMARK   45  A    between atoms: _115  and  _118
REMARK   46  A    between atoms: _121  and  _123
REMARK   47  A    between atoms: _123  and  _124
REMARK   48  A    between atoms: _123  and  _126
REMARK   49  A    between atoms: _126  and  _127
REMARK   50  A    between atoms: _127  and  _128
REMARK   51  A    between atoms: _128  and  _129
REMARK   52  A    between atoms: _129  and  _130
REMARK   53  A    between atoms: _134  and  _136
REMARK   54  A    between atoms: _136  and  _137
REMARK   55  A    between atoms: _136  and  _139
REMARK   56  A    between atoms: _139  and  _140
REMARK   57  A    between atoms: _140  and  _141
REMARK   58  A    between atoms: _141  and  _142
REMARK   59  A    between atoms: _142  and  _143
REMARK   60  A    between atoms: _147  and  _149
REMARK   61  A    between atoms: _149  and  _150
REMARK   62  A    between atoms: _149  and  _152
REMARK   63  A    between atoms: _152  and  _153
REMARK   64  A    between atoms: _156  and  _158
REMARK   65  A    between atoms: _158  and  _159
REMARK   66  A    between atoms: _158  and  _161
REMARK   67  A    between atoms: _161  and  _162
REMARK   68  A    between atoms: _162  and  _163
REMARK   69  A    between atoms: _163  and  _164
REMARK   70  A    between atoms: _173  and  _175
REMARK   71  A    between atoms: _175  and  _176
REMARK   72  A    between atoms: _175  and  _178
REMARK   73  A    between atoms: _178  and  _179
REMARK   74  A    between atoms: _179  and  _180
REMARK   75  A    between atoms: _180  and  _181
REMARK   76  A    between atoms: _190  and  _192
REMARK   77  A    between atoms: _192  and  _193
REMARK   78  A    between atoms: _192  and  _195
REMARK   79  A    between atoms: _195  and  _196
REMARK   80  A    between atoms: _196  and  _197
REMARK   81  A    between atoms: _200  and  _202
REMARK   82  A    between atoms: _202  and  _203
REMARK   83  A    between atoms: _202  and  _205
REMARK   84  A    between atoms: _205  and  _206
REMARK   85  A    between atoms: _209  and  _211
REMARK   86  A    between atoms: _211  and  _212
REMARK   87  A    between atoms: _211  and  _214
REMARK   88  A    between atoms: _214  and  _215
REMARK   89  A    between atoms: _218  and  _220
REMARK   90  A    between atoms: _220  and  _221
REMARK   91  A    between atoms: _220  and  _223
REMARK   92  A    between atoms: _223  and  _224
REMARK   93  A    between atoms: _227  and  _229
REMARK   94  A    between atoms: _229  and  _230
REMARK   95  A    between atoms: _229  and  _232
REMARK   96  A    between atoms: _232  and  _233
REMARK   97  A    between atoms: _233  and  _234
REMARK   98  A    between atoms: _236  and  _238
REMARK   99  A    between atoms: _238  and  _239
REMARK  100  A    between atoms: _238  and  _241
REMARK  101  A    between atoms: _241  and  _242
REMARK  102  A    between atoms: _247  and  _249
REMARK  103  A    between atoms: _249  and  _250
REMARK  104  A    between atoms: _249  and  _252
REMARK  105  A    between atoms: _255  and  _257
REMARK  106  A    between atoms: _257  and  _258
REMARK  107  A    between atoms: _257  and  _260
REMARK  108  A    between atoms: _260  and  _261
REMARK  109  A    between atoms: _264  and  _266
REMARK  110  A    between atoms: _266  and  _267
REMARK  111  A    between atoms: _269  and  _271
REMARK  112  A    between atoms: _271  and  _272
REMARK  113  A    between atoms: _271  and  _274
REMARK  114  A    between atoms: _274  and  _275
REMARK  115  A    between atoms: _278  and  _280
REMARK  116  A    between atoms: _280  and  _281
REMARK  117  A    between atoms: _280  and  _283
REMARK  118  A    between atoms: _283  and  _284
REMARK  119  A    between atoms: _287  and  _289
REMARK  120  A    between atoms: _289  and  _290
REMARK  121  A    between atoms: _289  and  _292
REMARK  122  A    between atoms: _292  and  _293
REMARK  123  A    between atoms: _296  and  _298
REMARK  124  A    between atoms: _298  and  _299
REMARK  125  A    between atoms: _298  and  _301
REMARK  126  A    between atoms: _301  and  _302
REMARK  127  A    between atoms: _307  and  _308
REMARK  128  A    between atoms: _310  and  _312
REMARK  129  A    between atoms: _312  and  _313
REMARK  130  A    between atoms: _312  and  _315
REMARK  131  A    between atoms: _315  and  _316
REMARK  132  A    between atoms: _319  and  _321
REMARK  133  A    between atoms: _321  and  _322
REMARK  134  A    between atoms: _321  and  _324
REMARK  135  A    between atoms: _327  and  _329
REMARK  136  A    between atoms: _329  and  _330
REMARK  137  A    between atoms: _329  and  _332
REMARK  138  A    between atoms: _332  and  _333
REMARK  139  A    between atoms: _336  and  _338
REMARK  140  A    between atoms: _338  and  _339
REMARK  141  A    between atoms: _338  and  _341
REMARK  142  A    between atoms: _341  and  _342
REMARK  143  A    between atoms: _347  and  _349
REMARK  144  A    between atoms: _349  and  _350
REMARK  145  A    between atoms: _349  and  _352
REMARK  146  A    between atoms: _352  and  _353
REMARK  147  A    between atoms: _356  and  _358
REMARK  148  A    between atoms: _358  and  _359
REMARK  149  A    between atoms: _358  and  _361
REMARK  150  A    between atoms: _361  and  _362
REMARK  151  A    between atoms: _362  and  _363
REMARK  152  A    between atoms: _365  and  _367
REMARK  153  A    between atoms: _367  and  _368
REMARK  154  A    between atoms: _370  and  _372
REMARK  155  A    between atoms: _372  and  _373
REMARK  156  A    between atoms: _376  and  _378
REMARK  157  A    between atoms: _378  and  _379
REMARK  158  A    between atoms: _378  and  _381
REMARK  159  A    between atoms: _381  and  _382
REMARK  160  A    between atoms: _385  and  _387
REMARK  161  A    between atoms: _387  and  _388
REMARK  162  A    between atoms: _387  and  _390
REMARK  163  A    between atoms: _390  and  _391
REMARK  164  A    between atoms: _396  and  _398
REMARK  165  A    between atoms: _398  and  _399
REMARK  166  A    between atoms: _398  and  _401
REMARK  167  A    between atoms: _401  and  _402
REMARK  168  A    between atoms: _407  and  _409
REMARK  169  A    between atoms: _409  and  _410
REMARK  170  A    between atoms: _412  and  _414
REMARK  171  A    between atoms: _414  and  _415
REMARK  172  A    between atoms: _414  and  _417
REMARK  173  A    between atoms: _417  and  _418
REMARK  174  A    between atoms: _421  and  _423
REMARK  175  A    between atoms: _423  and  _424
REMARK  176  A    between atoms: _423  and  _426
REMARK  177  A    between atoms: _426  and  _427
REMARK  178  A    between atoms: _432  and  _433
REMARK  179  A    between atoms: _435  and  _437
REMARK  180  A    between atoms: _437  and  _438
REMARK  181  A    between atoms: _437  and  _440
REMARK  182  A    between atoms: _440  and  _441
REMARK  183  A    between atoms: _444  and  _446
REMARK  184  A    between atoms: _446  and  _447
REMARK  185  A    between atoms: _446  and  _449
REMARK  186  A    between atoms: _449  and  _450
REMARK  187  A    between atoms: _453  and  _455
REMARK  188  A    between atoms: _455  and  _456
REMARK  189  A    between atoms: _455  and  _458
REMARK  190  A    between atoms: _458  and  _459
REMARK  191  A    between atoms: _462  and  _464
REMARK  192  A    between atoms: _464  and  _465
REMARK  193  A    between atoms: _464  and  _467
REMARK  194  A    between atoms: _467  and  _468
REMARK  195  A    between atoms: _473  and  _475
REMARK  196  A    between atoms: _475  and  _476
REMARK  197  A    between atoms: _475  and  _478
REMARK  198  A    between atoms: _478  and  _479
REMARK  199  A    between atoms: _479  and  _480
REMARK  200  A    between atoms: _480  and  _481
REMARK  201  A    between atoms: _490  and  _492
REMARK  202  A    between atoms: _492  and  _493
REMARK  203  A    between atoms: _492  and  _495
REMARK  204  A    between atoms: _495  and  _496
REMARK  205  A    between atoms: _499  and  _501
REMARK  206  A    between atoms: _501  and  _502
REMARK  207  A    between atoms: _501  and  _504
REMARK  208  A    between atoms: _504  and  _505
REMARK  209  A    between atoms: _508  and  _510
REMARK  210  A    between atoms: _510  and  _511
REMARK  211  A    between atoms: _510  and  _513
REMARK  212  A    between atoms: _513  and  _514
REMARK  213  A    between atoms: _516  and  _518
REMARK  214  A    between atoms: _518  and  _519
REMARK  215  A    between atoms: _518  and  _521
REMARK  216  A    between atoms: _521  and  _522
REMARK  217  A    between atoms: _527  and  _529
REMARK  218  A    between atoms: _529  and  _530
REMARK  219  A    between atoms: _533  and  _535
REMARK  220  A    between atoms: _535  and  _536
REMARK  221  A    between atoms: _535  and  _538
REMARK  222  A    between atoms: _538  and  _539
REMARK  223  A    between atoms: _539  and  _540
REMARK  224  A    between atoms: _540  and  _541
REMARK  225  A    between atoms: _541  and  _542
REMARK  226  A    between atoms: _546  and  _548
REMARK  227  A    between atoms: _548  and  _549
REMARK  228  A    between atoms: _548  and  _551
REMARK  229  A    between atoms: _551  and  _552
REMARK  230  A    between atoms: _555  and  _557
REMARK  231  A    between atoms: _557  and  _558
REMARK  232  A    between atoms: _557  and  _560
REMARK  233  A    between atoms: _560  and  _561
REMARK  234  A    between atoms: _564  and  _566
REMARK  235  A    between atoms: _566  and  _567
REMARK  236  A    between atoms: _566  and  _569
REMARK  237  A    between atoms: _569  and  _570
REMARK  238  A    between atoms: _573  and  _575
REMARK  239  A    between atoms: _575  and  _576
REMARK  240  A    between atoms: _575  and  _578
REMARK  241  A    between atoms: _578  and  _579
REMARK  242  A    between atoms: _585  and  _587
REMARK  243  A    between atoms: _587  and  _588
REMARK  244  A    between atoms: _590  and  _592
REMARK  245  A    between atoms: _592  and  _593
REMARK  246  A    between atoms: _592  and  _595
REMARK  247  A    between atoms: _595  and  _596
REMARK                            x       y       z     vdW  Elec       q    Type
REMARK                         _______ _______ _______ _____ _____    ______ ____
ROOT
ATOM      1  C   ASN A   1       8.156  -0.147  30.846  0.00  0.00    +0.239 C 
ATOM      2  O   ASN A   1       9.042  -0.300  31.682  0.00  0.00    -0.274 OA
ATOM      3  N   ASN A   2       6.943  -0.709  30.935  0.00  0.00    -0.298 N 
ATOM      4  H   ASN A   2       6.331  -0.678  30.095  0.00  0.00    +0.150 HD
ENDROOT
BRANCH   1   5
ATOM      5  CA  ASN A   1       8.434   0.607  29.548  0.00  0.00    +0.154 C 
BRANCH   5   6
ATOM      6  N   ASN A   1       8.171  -0.311  28.443  0.00  0.00    -0.238 NA
ATOM      7  H   ASN A   1       7.540  -0.004  27.675  0.00  0.00    +0.142 HD
ENDBRANCH   5   6
BRANCH   5   8
ATOM      8  CB  ASN A   1       7.553   1.885  29.419  0.00  0.00    +0.111 C 
BRANCH   8   9
ATOM      9  CG  ASN A   1       8.346   3.193  29.555  0.00  0.00    +0.221 C 
ATOM     10  ND2 ASN A   1       7.610   4.316  29.663  0.00  0.00    -0.329 N 
ATOM     11 HD21 ASN A   1       8.080   5.239  29.760  0.00  0.00    +0.145 HD
ATOM     12 HD22 ASN A   1       6.572   4.260  29.650  0.00  0.00    +0.145 HD
ATOM     13  OD1 ASN A   1       9.591   3.202  29.565  0.00  0.00    -0.275 OA
ENDBRANCH   8   9
ENDBRANCH   5   8
ENDBRANCH   1   5
BRANCH   3  14
ATOM     14  CA  ASN A   2       6.422  -1.364  32.135  0.00  0.00    +0.146 C 
BRANCH  14  15
ATOM     15  C   ASN A   2       7.119  -2.644  32.574  0.00  0.00    +0.227 C 
ATOM     16  O   ASN A   2       7.061  -2.970  33.759  0.00  0.00    -0.286 OA
ENDBRANCH  14  15
BRANCH  14  17
ATOM     17  CB  ASN A   2       4.939  -1.756  31.974  0.00  0.00    +0.112 C 
BRANCH  17  18
ATOM     18  CG  ASN A   2       4.061  -0.621  31.482  0.00  0.00    +0.222 C 
ATOM     19  OD1 ASN A   2       4.495   0.537  31.415  0.00  0.00    -0.275 OA
ATOM     20  ND2 ASN A   2       2.811  -0.950  31.123  0.00  0.00    -0.329 N 
ATOM     21 HD21 ASN A   2       2.491  -1.937  31.197  0.00  0.00    +0.145 HD
ATOM     22 HD22 ASN A   2       2.161  -0.218  30.771  0.00  0.00    +0.145 HD
ENDBRANCH  17  18
ENDBRANCH  14  17
ENDBRANCH   3  14
TORSDOF 8
REMARK  Name = ../refined-set-2016/2bak/2bak_pocket.pdb
REMARK  247 active torsions:
REMARK  status: ('A' for Active; 'I' for Inactive)
REMARK    1  A    between atoms: _2  and  _3
REMARK    2  A    between atoms: _8  and  _10
REMARK    3  A    between atoms: _10  and  _11
REMARK    4  A    between atoms: _10  and  _13
REMARK    5  A    between atoms: _16  and  _18
REMARK    6  A    between atoms: _18  and  _19
REMARK    7  A    between atoms: _21  and  _23
REMARK    8  A    between atoms: _23  and  _24
REMARK    9  A    between atoms: _23  and  _26
REMARK   10  A    between atoms: _26  and  _27
REMARK   11  A    between atoms: _29  and  _31
REMARK   12  A    between atoms: _31  and  _32
REMARK   13  A    between atoms: _34  and  _36
REMARK   14  A    between atoms: _36  and  _37
REMARK   15  A    between atoms: _36  and  _39
REMARK   16  A    between atoms: _39  and  _40
REMARK   17  A    between atoms: _45  and  _46
REMARK   18  A    between atoms: _48  and  _50
REMARK   19  A    between atoms: _50  and  _51
REMARK   20  A    between atoms: _53  and  _55
REMARK   21  A    between atoms: _55  and  _56
REMARK   22  A    between atoms: _55  and  _58
REMARK   23  A    between atoms: _58  and  _59
REMARK   24  A    between atoms: _61  and  _63
REMARK   25  A    between atoms: _63  and  _64
REMARK   26  A    between atoms: _63  and  _66
REMARK   27  A    between atoms: _69  and  _71
REMARK   28  A    between atoms: _71  and  _72
REMARK   29  A    between atoms: _71  and  _74
REMARK   30  A    between atoms: _76  and  _78
REMARK   31  A    between atoms: _78  and  _79
REMARK   32  A    between atoms: _82  and  _84
REMARK   33  A    between atoms: _84  and  _85
REMARK   34  A    between atoms: _84  and  _87
REMARK   35  A    between atoms: _87  and  _88
REMARK   36  A    between atoms: _88  and  _89
REMARK   37  A    between atoms: _89  and  _90
REMARK   38  A    between atoms: _99  and  _101
REMARK   39  A    between atoms: _101  and  _102
REMARK   40  A    between atoms: _101  and  _104
REMARK   41  A    between atoms: _107  and  _109
REMARK   42  A    between atoms: _109  and  _110
REMARK   43  A    between atoms: _113  and  _115
REMARK   44  A    between atoms: _115  and  _116
REMARK   45  A    between atoms: _115  and  _118
REMARK   46  A    between atoms: _121  and  _123
REMARK   47  A    between atoms: _123  and  _124
REMARK   48  A    between atoms: _123  and  _126
REMARK   49  A    between atoms: _126  and  _127
REMARK   50  A    between atoms: _127  and  _128
REMARK   51  A    between atoms: _128  and  _129
REMARK   52  A    between atoms: _129  and  _130
REMARK   53  A    between atoms: _134  and  _136
REMARK   54  A    between atoms: _136  and  _137
REMARK   55  A    between atoms: _136  and  _139
REMARK   56  A    between atoms: _139  and  _140
REMARK   57  A    between atoms: _140  and  _141
REMARK   58  A    between atoms: _141  and  _142
REMARK   59  A    between atoms: _142  and  _143
REMARK   60  A    between atoms: _147  and  _149
REMARK   61  A    between atoms: _149  and  _150
REMARK   62  A    between atoms: _149  and  _152
REMARK   63  A    between atoms: _152  and  _153
REMARK   64  A    between atoms: _156  and  _158
REMARK   65  A    between atoms: _158  and  _159
REMARK   66  A    between atoms: _158  and  _161
REMARK   67  A    between atoms: _161  and  _162
REMARK   68  A    between atoms: _162  and  _163
REMARK   69  A    between atoms: _163  and  _164
REMARK   70  A    between atoms: _173  and  _175
REMARK   71  A    between atoms: _175  and  _176
REMARK   72  A    between atoms: _175  and  _178
REMARK   73  A    between atoms: _178  and  _179
REMARK   74  A    between atoms: _179  and  _180
REMARK   75  A    between atoms: _180  and  _181
REMARK   76  A    between atoms: _190  and  _192
REMARK   77  A    between atoms: _192  and  _193
REMARK   78  A    between atoms: _192  and  _195
REMARK   79  A    between atoms: _195  and  _196
REMARK   80  A    between atoms: _196  and  _197
REMARK   81  A    between atoms: _200  and  _202
REMARK   82  A    between atoms: _202  and  _203
REMARK   83  A    between atoms: _202  and  _205
REMARK   84  A    between atoms: _205  and  _206
REMARK   85  A    between atoms: _209  and  _211
REMARK   86  A    between atoms: _211  and  _212
REMARK   87  A    between atoms: _211  and  _214
REMARK   88  A    between atoms: _214  and  _215
REMARK   89  A    between atoms: _218  and  _220
REMARK   90  A    between atoms: _220  and  _221
REMARK   91  A    between atoms: _220  and  _223
REMARK   92  A    between atoms: _223  and  _224
REMARK   93  A    between atoms: _227  and  _229
REMARK   94  A    between atoms: _229  and  _230
REMARK   95  A    between atoms: _229  and  _232
REMARK   96  A    between atoms: _232  and  _233
REMARK   97  A    between atoms: _233  and  _234
REMARK   98  A    between atoms: _236  and  _238
REMARK   99  A    between atoms: _238  and  _239
REMARK  100  A    between atoms: _238  and  _241
REMARK  101  A    between atoms: _241  and  _242
REMARK  102  A    between atoms: _247  and  _249
REMARK  103  A    between atoms: _249  and  _250
REMARK  104  A    between atoms: _249  and  _252
REMARK  105  A    between atoms: _255  and  _257
REMARK  106  A    between atoms: _257  and  _258
REMARK  107  A    between atoms: _257  and  _260
REMARK  108  A    between atoms: _260  and  _261
REMARK  109  A    between atoms: _264  and  _266
REMARK  110  A    between atoms: _266  and  _267
REMARK  111  A    between atoms: _269  and  _271
REMARK  112  A    between atoms: _271  and  _272
REMARK  113  A    between atoms: _271  and  _274
REMARK  114  A    between atoms: _274  and  _275
REMARK  115  A    between atoms: _278  and  _280
REMARK  116  A    between atoms: _280  and  _281
REMARK  117  A    between atoms: _280  and  _283
REMARK  118  A    between atoms: _283  and  _284
REMARK  119  A    between atoms: _287  and  _289
REMARK  120  A    between atoms: _289  and  _290
REMARK  121  A    between atoms: _289  and  _292
REMARK  122  A    between atoms: _292  and  _293
REMARK  123  A    between atoms: _296  and  _298
REMARK  124  A    between atoms: _298  and  _299
REMARK  125  A    between atoms: _298  and  _301
REMARK  126  A    between atoms: _301  and  _302
REMARK  127  A    between atoms: _307  and  _308
REMARK  128  A    between atoms: _310  and  _312
REMARK  129  A    between atoms: _312  and  _313
REMARK  130  A    between atoms: _312  and  _315
REMARK  131  A    between atoms: _315  and  _316
REMARK  132  A    between atoms: _319  and  _321
REMARK  133  A    between atoms: _321  and  _322
REMARK  134  A    between atoms: _321  and  _324
REMARK  135  A    between atoms: _327  and  _329
REMARK  136  A    between atoms: _329  and  _330
REMARK  137  A    between atoms: _329  and  _332
REMARK  138  A    between atoms: _332  and  _333
REMARK  139  A    between atoms: _336  and  _338
REMARK  140  A    between atoms: _338  and  _339
REMARK  141  A    between atoms: _338  and  _341
REMARK  142  A    between atoms: _341  and  _342
REMARK  143  A    between atoms: _347  and  _349
REMARK  144  A    between atoms: _349  and  _350
REMARK  145  A    between atoms: _349  and  _352
REMARK  146  A    between atoms: _352  and  _353
REMARK  147  A    between atoms: _356  and  _358
REMARK  148  A    between atoms: _358  and  _359
REMARK  149  A    between atoms: _358  and  _361
REMARK  150  A    between atoms: _361  and  _362
REMARK  151  A    between atoms: _362  and  _363
REMARK  152  A    between atoms: _365  and  _367
REMARK  153  A    between atoms: _367  and  _368
REMARK  154  A    between atoms: _370  and  _372
REMARK  155  A    between atoms: _372  and  _373
REMARK  156  A    between atoms: _376  and  _378
REMARK  157  A    between atoms: _378  and  _379
REMARK  158  A    between atoms: _378  and  _381
REMARK  159  A    between atoms: _381  and  _382
REMARK  160  A    between atoms: _385  and  _387
REMARK  161  A    between atoms: _387  and  _388
REMARK  162  A    between atoms: _387  and  _390
REMARK  163  A    between atoms: _390  and  _391
REMARK  164  A    between atoms: _396  and  _398
REMARK  165  A    between atoms: _398  and  _399
REMARK  166  A    between atoms: _398  and  _401
REMARK  167  A    between atoms: _401  and  _402
REMARK  168  A    between atoms: _407  and  _409
REMARK  169  A    between atoms: _409  and  _410
REMARK  170  A    between atoms: _412  and  _414
REMARK  171  A    between atoms: _414  and  _415
REMARK  172  A    between atoms: _414  and  _417
REMARK  173  A    between atoms: _417  and  _418
REMARK  174  A    between atoms: _421  and  _423
REMARK  175  A    between atoms: _423  and  _424
REMARK  176  A    between atoms: _423  and  _426
REMARK  177  A    between atoms: _426  and  _427
REMARK  178  A    between atoms: _432  and  _433
REMARK  179  A    between atoms: _435  and  _437
REMARK  180  A    between atoms: _437  and  _438
REMARK  181  A    between atoms: _437  and  _440
REMARK  182  A    between atoms: _440  and  _441
REMARK  183  A    between atoms: _444  and  _446
REMARK  184  A    between atoms: _446  and  _447
REMARK  185  A    between atoms: _446  and  _449
REMARK  186  A    between atoms: _449  and  _450
REMARK  187  A    between atoms: _453  and  _455
REMARK  188  A    between atoms: _455  and  _456
REMARK  189  A    between atoms: _455  and  _458
REMARK  190  A    between atoms: _458  and  _459
REMARK  191  A    between atoms: _462  and  _464
REMARK  192  A    between atoms: _464  and  _465
REMARK  193  A    between atoms: _464  and  _467
REMARK  194  A    between atoms: _467  and  _468
REMARK  195  A    between atoms: _473  and  _475
REMARK  196  A    between atoms: _475  and  _476
REMARK  197  A    between atoms: _475  and  _478
REMARK  198  A    between atoms: _478  and  _479
REMARK  199  A    between atoms: _479  and  _480
REMARK  200  A    between atoms: _480  and  _481
REMARK  201  A    between atoms: _490  and  _492
REMARK  202  A    between atoms: _492  and  _493
REMARK  203  A    between atoms: _492  and  _495
REMARK  204  A    between atoms: _495  and  _496
REMARK  205  A    between atoms: _499  and  _501
REMARK  206  A    between atoms: _501  and  _502
REMARK  207  A    between atoms: _501  and  _504
REMARK  208  A    between atoms: _504  and  _505
REMARK  209  A    between atoms: _508  and  _510
REMARK  210  A    between atoms: _510  and  _511
REMARK  211  A    between atoms: _510  and  _513
REMARK  212  A    between atoms: _513  and  _514
REMARK  213  A    between atoms: _516  and  _518
REMARK  214  A    between atoms: _518  and  _519
REMARK  215  A    between atoms: _518  and  _521
REMARK  216  A    between atoms: _521  and  _522
REMARK  217  A    between atoms: _527  and  _529
REMARK  218  A    between atoms: _529  and  _530
REMARK  219  A    between atoms: _533  and  _535
REMARK  220  A    between atoms: _535  and  _536
REMARK  221  A    between atoms: _535  and  _538
REMARK  222  A    between atoms: _538  and  _539
REMARK  223  A    between atoms: _539  and  _540
REMARK  224  A    between atoms: _540  and  _541
REMARK  225  A    between atoms: _541  and  _542
REMARK  226  A    between atoms: _546  and  _548
REMARK  227  A    between atoms: _548  and  _549
REMARK  228  A    between atoms: _548  and  _551
REMARK  229  A    between atoms: _551  and  _552
REMARK  230  A    between atoms: _555  and  _557
REMARK  231  A    between atoms: _557  and  _558
REMARK  232  A    between atoms: _557  and  _560
REMARK  233  A    between atoms: _560  and  _561
REMARK  234  A    between atoms: _564  and  _566
REMARK  235  A    between atoms: _566  and  _567
REMARK  236  A    between atoms: _566  and  _569
REMARK  237  A    between atoms: _569  and  _570
REMARK  238  A    between atoms: _573  and  _575
REMARK  239  A    between atoms: _575  and  _576
REMARK  240  A    between atoms: _575  and  _578
REMARK  241  A    between atoms: _578  and  _579
REMARK  242  A    between atoms: _585  and  _587
REMARK  243  A    between atoms: _587  and  _588
REMARK  244  A    between atoms: _590  and  _592
REMARK  245  A    between atoms: _592  and  _593
REMARK  246  A    between atoms: _592  and  _595
REMARK  247  A    between atoms: _595  and  _596
REMARK                            x       y       z     vdW  Elec       q    Type
REMARK                         _______ _______ _______ _____ _____    ______ ____
ROOT
ATOM      1  C   GLY A   1       9.980  -3.910  11.351  0.00  0.00    +0.240 C 
ATOM      2  N   LEU A   2      11.143  -3.394  11.718  0.00  0.00    -0.298 N 
ATOM      3  H   LEU A   2      11.658  -3.822  12.514  0.00  0.00    +0.150 HD
ATOM      4  O   GLY A   1       9.294  -3.423  10.468  0.00  0.00    -0.274 OA
ENDROOT
BRANCH   1   5
ATOM      5  CA  GLY A   1       9.537  -5.182  12.026  0.00  0.00    +0.169 C 
BRANCH   5   6
ATOM      6  N   GLY A   1      10.636  -6.084  12.331  0.00  0.00    -0.236 NA
ATOM      7  H   GLY A   1      10.915  -6.221  13.323  0.00  0.00    +0.142 HD
ENDBRANCH   5   6
ENDBRANCH   1   5
BRANCH   2   8
ATOM      8  CA  LEU A   2      11.717  -2.252  11.042  0.00  0.00    +0.137 C 
BRANCH   8   9
ATOM      9  C   LEU A   2      12.131  -2.569   9.601  0.00  0.00    +0.227 C 
ATOM     10  O   LEU A   2      12.024  -1.685   8.741  0.00  0.00    -0.286 OA
ENDBRANCH   8   9
BRANCH   8  11
ATOM     11  CB  LEU A   2      12.927  -1.679  11.809  0.00  0.00    +0.028 C 
BRANCH  11  12
ATOM     12  CG  LEU A   2      12.755  -0.669  12.938  0.00  0.00    +0.002 C 
ATOM     13  CD2 LEU A   2      14.103   0.004  13.098  0.00  0.00    +0.000 C 
ATOM     14  CD1 LEU A   2      11.648   0.430  12.739  0.00  0.00    +0.000 C 
ENDBRANCH  11  12
ENDBRANCH   8  11
ENDBRANCH   2   8
TORSDOF 6
REMARK  Name = ../refined-set-2016/2bak/2bak_pocket.pdb
REMARK  247 active torsions:
REMARK  status: ('A' for Active; 'I' for Inactive)
REMARK    1  A    between atoms: _2  and  _3
REMARK    2  A    between atoms: _8  and  _10
REMARK    3  A    between atoms: _10  and  _11
REMARK    4  A    between atoms: _10  and  _13
REMARK    5  A    between atoms: _16  and  _18
REMARK    6  A    between atoms: _18  and  _19
REMARK    7  A    between atoms: _21  and  _23
REMARK    8  A    between atoms: _23  and  _24
REMARK    9  A    between atoms: _23  and  _26
REMARK   10  A    between atoms: _26  and  _27
REMARK   11  A    between atoms: _29  and  _31
REMARK   12  A    between atoms: _31  and  _32
REMARK   13  A    between atoms: _34  and  _36
REMARK   14  A    between atoms: _36  and  _37
REMARK   15  A    between atoms: _36  and  _39
REMARK   16  A    between atoms: _39  and  _40
REMARK   17  A    between atoms: _45  and  _46
REMARK   18  A    between atoms: _48  and  _50
REMARK   19  A    between atoms: _50  and  _51
REMARK   20  A    between atoms: _53  and  _55
REMARK   21  A    between atoms: _55  and  _56
REMARK   22  A    between atoms: _55  and  _58
REMARK   23  A    between atoms: _58  and  _59
REMARK   24  A    between atoms: _61  and  _63
REMARK   25  A    between atoms: _63  and  _64
REMARK   26  A    between atoms: _63  and  _66
REMARK   27  A    between atoms: _69  and  _71
REMARK   28  A    between atoms: _71  and  _72
REMARK   29  A    between atoms: _71  and  _74
REMARK   30  A    between atoms: _76  and  _78
REMARK   31  A    between atoms: _78  and  _79
REMARK   32  A    between atoms: _82  and  _84
REMARK   33  A    between atoms: _84  and  _85
REMARK   34  A    between atoms: _84  and  _87
REMARK   35  A    between atoms: _87  and  _88
REMARK   36  A    between atoms: _88  and  _89
REMARK   37  A    between atoms: _89  and  _90
REMARK   38  A    between atoms: _99  and  _101
REMARK   39  A    between atoms: _101  and  _102
REMARK   40  A    between atoms: _101  and  _104
REMARK   41  A    between atoms: _107  and  _109
REMARK   42  A    between atoms: _109  and  _110
REMARK   43  A    between atoms: _113  and  _115
REMARK   44  A    between atoms: _115  and  _116
REMARK   45  A    between atoms: _115  and  _118
REMARK   46  A    between atoms: _121  and  _123
REMARK   47  A    between atoms: _123  and  _124
REMARK   48  A    between atoms: _123  and  _126
REMARK   49  A    between atoms: _126  and  _127
REMARK   50  A    between atoms: _127  and  _128
REMARK   51  A    between atoms: _128  and  _129
REMARK   52  A    between atoms: _129  and  _130
REMARK   53  A    between atoms: _134  and  _136
REMARK   54  A    between atoms: _136  and  _137
REMARK   55  A    between atoms: _136  and  _139
REMARK   56  A    between atoms: _139  and  _140
REMARK   57  A    between atoms: _140  and  _141
REMARK   58  A    between atoms: _141  and  _142
REMARK   59  A    between atoms: _142  and  _143
REMARK   60  A    between atoms: _147  and  _149
REMARK   61  A    between atoms: _149  and  _150
REMARK   62  A    between atoms: _149  and  _152
REMARK   63  A    between atoms: _152  and  _153
REMARK   64  A    between atoms: _156  and  _158
REMARK   65  A    between atoms: _158  and  _159
REMARK   66  A    between atoms: _158  and  _161
REMARK   67  A    between atoms: _161  and  _162
REMARK   68  A    between atoms: _162  and  _163
REMARK   69  A    between atoms: _163  and  _164
REMARK   70  A    between atoms: _173  and  _175
REMARK   71  A    between atoms: _175  and  _176
REMARK   72  A    between atoms: _175  and  _178
REMARK   73  A    between atoms: _178  and  _179
REMARK   74  A    between atoms: _179  and  _180
REMARK   75  A    between atoms: _180  and  _181
REMARK   76  A    between atoms: _190  and  _192
REMARK   77  A    between atoms: _192  and  _193
REMARK   78  A    between atoms: _192  and  _195
REMARK   79  A    between atoms: _195  and  _196
REMARK   80  A    between atoms: _196  and  _197
REMARK   81  A    between atoms: _200  and  _202
REMARK   82  A    between atoms: _202  and  _203
REMARK   83  A    between atoms: _202  and  _205
REMARK   84  A    between atoms: _205  and  _206
REMARK   85  A    between atoms: _209  and  _211
REMARK   86  A    between atoms: _211  and  _212
REMARK   87  A    between atoms: _211  and  _214
REMARK   88  A    between atoms: _214  and  _215
REMARK   89  A    between atoms: _218  and  _220
REMARK   90  A    between atoms: _220  and  _221
REMARK   91  A    between atoms: _220  and  _223
REMARK   92  A    between atoms: _223  and  _224
REMARK   93  A    between atoms: _227  and  _229
REMARK   94  A    between atoms: _229  and  _230
REMARK   95  A    between atoms: _229  and  _232
REMARK   96  A    between atoms: _232  and  _233
REMARK   97  A    between atoms: _233  and  _234
REMARK   98  A    between atoms: _236  and  _238
REMARK   99  A    between atoms: _238  and  _239
REMARK  100  A    between atoms: _238  and  _241
REMARK  101  A    between atoms: _241  and  _242
REMARK  102  A    between atoms: _247  and  _249
REMARK  103  A    between atoms: _249  and  _250
REMARK  104  A    between atoms: _249  and  _252
REMARK  105  A    between atoms: _255  and  _257
REMARK  106  A    between atoms: _257  and  _258
REMARK  107  A    between atoms: _257  and  _260
REMARK  108  A    between atoms: _260  and  _261
REMARK  109  A    between atoms: _264  and  _266
REMARK  110  A    between atoms: _266  and  _267
REMARK  111  A    between atoms: _269  and  _271
REMARK  112  A    between atoms: _271  and  _272
REMARK  113  A    between atoms: _271  and  _274
REMARK  114  A    between atoms: _274  and  _275
REMARK  115  A    between atoms: _278  and  _280
REMARK  116  A    between atoms: _280  and  _281
REMARK  117  A    between atoms: _280  and  _283
REMARK  118  A    between atoms: _283  and  _284
REMARK  119  A    between atoms: _287  and  _289
REMARK  120  A    between atoms: _289  and  _290
REMARK  121  A    between atoms: _289  and  _292
REMARK  122  A    between atoms: _292  and  _293
REMARK  123  A    between atoms: _296  and  _298
REMARK  124  A    between atoms: _298  and  _299
REMARK  125  A    between atoms: _298  and  _301
REMARK  126  A    between atoms: _301  and  _302
REMARK  127  A    between atoms: _307  and  _308
REMARK  128  A    between atoms: _310  and  _312
REMARK  129  A    between atoms: _312  and  _313
REMARK  130  A    between atoms: _312  and  _315
REMARK  131  A    between atoms: _315  and  _316
REMARK  132  A    between atoms: _319  and  _321
REMARK  133  A    between atoms: _321  and  _322
REMARK  134  A    between atoms: _321  and  _324
REMARK  135  A    between atoms: _327  and  _329
REMARK  136  A    between atoms: _329  and  _330
REMARK  137  A    between atoms: _329  and  _332
REMARK  138  A    between atoms: _332  and  _333
REMARK  139  A    between atoms: _336  and  _338
REMARK  140  A    between atoms: _338  and  _339
REMARK  141  A    between atoms: _338  and  _341
REMARK  142  A    between atoms: _341  and  _342
REMARK  143  A    between atoms: _347  and  _349
REMARK  144  A    between atoms: _349  and  _350
REMARK  145  A    between atoms: _349  and  _352
REMARK  146  A    between atoms: _352  and  _353
REMARK  147  A    between atoms: _356  and  _358
REMARK  148  A    between atoms: _358  and  _359
REMARK  149  A    between atoms: _358  and  _361
REMARK  150  A    between atoms: _361  and  _362
REMARK  151  A    between atoms: _362  and  _363
REMARK  152  A    between atoms: _365  and  _367
REMARK  153  A    between atoms: _367  and  _368
REMARK  154  A    between atoms: _370  and  _372
REMARK  155  A    between atoms: _372  and  _373
REMARK  156  A    between atoms: _376  and  _378
REMARK  157  A    between atoms: _378  and  _379
REMARK  158  A    between atoms: _378  and  _381
REMARK  159  A    between atoms: _381  and  _382
REMARK  160  A    between atoms: _385  and  _387
REMARK  161  A    between atoms: _387  and  _388
REMARK  162  A    between atoms: _387  and  _390
REMARK  163  A    between atoms: _390  and  _391
REMARK  164  A    between atoms: _396  and  _398
REMARK  165  A    between atoms: _398  and  _399
REMARK  166  A    between atoms: _398  and  _401
REMARK  167  A    between atoms: _401  and  _402
REMARK  168  A    between atoms: _407  and  _409
REMARK  169  A    between atoms: _409  and  _410
REMARK  170  A    between atoms: _412  and  _414
REMARK  171  A    between atoms: _414  and  _415
REMARK  172  A    between atoms: _414  and  _417
REMARK  173  A    between atoms: _417  and  _418
REMARK  174  A    between atoms: _421  and  _423
REMARK  175  A    between atoms: _423  and  _424
REMARK  176  A    between atoms: _423  and  _426
REMARK  177  A    between atoms: _426  and  _427
REMARK  178  A    between atoms: _432  and  _433
REMARK  179  A    between atoms: _435  and  _437
REMARK  180  A    between atoms: _437  and  _438
REMARK  181  A    between atoms: _437  and  _440
REMARK  182  A    between atoms: _440  and  _441
REMARK  183  A    between atoms: _444  and  _446
REMARK  184  A    between atoms: _446  and  _447
REMARK  185  A    between atoms: _446  and  _449
REMARK  186  A    between atoms: _449  and  _450
REMARK  187  A    between atoms: _453  and  _455
REMARK  188  A    between atoms: _455  and  _456
REMARK  189  A    between atoms: _455  and  _458
REMARK  190  A    between atoms: _458  and  _459
REMARK  191  A    between atoms: _462  and  _464
REMARK  192  A    between atoms: _464  and  _465
REMARK  193  A    between atoms: _464  and  _467
REMARK  194  A    between atoms: _467  and  _468
REMARK  195  A    between atoms: _473  and  _475
REMARK  196  A    between atoms: _475  and  _476
REMARK  197  A    between atoms: _475  and  _478
REMARK  198  A    between atoms: _478  and  _479
REMARK  199  A    between atoms: _479  and  _480
REMARK  200  A    between atoms: _480  and  _481
REMARK  201  A    between atoms: _490  and  _492
REMARK  202  A    between atoms: _492  and  _493
REMARK  203  A    between atoms: _492  and  _495
REMARK  204  A    between atoms: _495  and  _496
REMARK  205  A    between atoms: _499  and  _501
REMARK  206  A    between atoms: _501  and  _502
REMARK  207  A    between atoms: _501  and  _504
REMARK  208  A    between atoms: _504  and  _505
REMARK  209  A    between atoms: _508  and  _510
REMARK  210  A    between atoms: _510  and  _511
REMARK  211  A    between atoms: _510  and  _513
REMARK  212  A    between atoms: _513  and  _514
REMARK  213  A    between atoms: _516  and  _518
REMARK  214  A    between atoms: _518  and  _519
REMARK  215  A    between atoms: _518  and  _521
REMARK  216  A    between atoms: _521  and  _522
REMARK  217  A    between atoms: _527  and  _529
REMARK  218  A    between atoms: _529  and  _530
REMARK  219  A    between atoms: _533  and  _535
REMARK  220  A    between atoms: _535  and  _536
REMARK  221  A    between atoms: _535  and  _538
REMARK  222  A    between atoms: _538  and  _539
REMARK  223  A    between atoms: _539  and  _540
REMARK  224  A    between atoms: _540  and  _541
REMARK  225  A    between atoms: _541  and  _542
REMARK  226  A    between atoms: _546  and  _548
REMARK  227  A    between atoms: _548  and  _549
REMARK  228  A    between atoms: _548  and  _551
REMARK  229  A    between atoms: _551  and  _552
REMARK  230  A    between atoms: _555  and  _557
REMARK  231  A    between atoms: _557  and  _558
REMARK  232  A    between atoms: _557  and  _560
REMARK  233  A    between atoms: _560  and  _561
REMARK  234  A    between atoms: _564  and  _566
REMARK  235  A    between atoms: _566  and  _567
REMARK  236  A    between atoms: _566  and  _569
REMARK  237  A    between atoms: _569  and  _570
REMARK  238  A    between atoms: _573  and  _575
REMARK  239  A    between atoms: _575  and  _576
REMARK  240  A    between atoms: _575  and  _578
REMARK  241  A    between atoms: _578  and  _579
REMARK  242  A    between atoms: _585  and  _587
REMARK  243  A    between atoms: _587  and  _588
REMARK  244  A    between atoms: _590  and  _592
REMARK  245  A    between atoms: _592  and  _593
REMARK  246  A    between atoms: _592  and  _595
REMARK  247  A    between atoms: _595  and  _596
REMARK                            x       y       z     vdW  Elec       q    Type
REMARK                         _______ _______ _______ _____ _____    ______ ____
ROOT
ATOM      1  CA  TYR A   1       9.387  -4.454   6.823  0.00  0.00    +0.149 C 
ENDROOT
BRANCH   1   2
ATOM      2  C   TYR A   1       8.871  -3.023   6.510  0.00  0.00    +0.239 C 
ATOM      3  N   ILE A   2       8.726  -2.167   7.521  0.00  0.00    -0.298 N 
ATOM      4  H   ILE A   2       8.975  -2.457   8.488  0.00  0.00    +0.150 HD
ATOM      5  O   TYR A   1       8.611  -2.708   5.365  0.00  0.00    -0.274 OA
BRANCH   3   6
ATOM      6  CA  ILE A   2       8.216  -0.817   7.270  0.00  0.00    +0.137 C 
BRANCH   6   7
ATOM      7  CB  ILE A   2       7.715  -0.075   8.555  0.00  0.00    +0.026 C 
ATOM      8  CG2 ILE A   2       6.740  -0.908   9.374  0.00  0.00    +0.002 C 
BRANCH   7   9
ATOM      9  CG1 ILE A   2       8.837   0.373   9.461  0.00  0.00    +0.002 C 
ATOM     10  CD1 ILE A   2       8.455   1.641  10.215  0.00  0.00    +0.000 C 
ENDBRANCH   7   9
ENDBRANCH   6   7
BRANCH   6  11
ATOM     11  C   ILE A   2       9.203   0.046   6.492  0.00  0.00    +0.227 C 
ATOM     12  O   ILE A   2       8.785   0.810   5.617  0.00  0.00    -0.286 OA
ENDBRANCH   6  11
ENDBRANCH   3   6
ENDBRANCH   1   2
BRANCH   1  13
ATOM     13  N   TYR A   1      10.658  -4.500   7.548  0.00  0.00    -0.238 NA
ATOM     14  H   TYR A   1      10.683  -4.939   8.490  0.00  0.00    +0.142 HD
ENDBRANCH   1  13
BRANCH   1  15
ATOM     15  CB  TYR A   1       8.338  -5.248   7.603  0.00  0.00    +0.053 C 
BRANCH  15  16
ATOM     16  CG  TYR A   1       6.966  -5.216   6.982  0.00  0.00    -0.020 A 
ATOM     17  CD2 TYR A   1       6.022  -4.252   7.360  0.00  0.00    -0.001 A 
ATOM     18  CE2 TYR A   1       4.759  -4.212   6.765  0.00  0.00    +0.036 A 
ATOM     19  CZ  TYR A   1       4.434  -5.154   5.796  0.00  0.00    +0.134 A 
ATOM     20  CE1 TYR A   1       5.348  -6.104   5.412  0.00  0.00    +0.036 A 
ATOM     21  CD1 TYR A   1       6.619  -6.124   5.997  0.00  0.00    -0.001 A 
BRANCH  19  22
ATOM     22  OH  TYR A   1       3.191  -5.148   5.180  0.00  0.00    -0.506 OA
ATOM     23  HH  TYR A   1       2.642  -4.414   5.555  0.00  0.00    +0.292 HD
ENDBRANCH  19  22
ENDBRANCH  15  16
ENDBRANCH   1  15
TORSDOF 9
REMARK  Name = ../refined-set-2016/2bak/2bak_pocket.pdb
REMARK  247 active torsions:
REMARK  status: ('A' for Active; 'I' for Inactive)
REMARK    1  A    between atoms: _2  and  _3
REMARK    2  A    between atoms: _8  and  _10
REMARK    3  A    between atoms: _10  and  _11
REMARK    4  A    between atoms: _10  and  _13
REMARK    5  A    between atoms: _16  and  _18
REMARK    6  A    between atoms: _18  and  _19
REMARK    7  A    between atoms: _21  and  _23
REMARK    8  A    between atoms: _23  and  _24
REMARK    9  A    between atoms: _23  and  _26
REMARK   10  A    between atoms: _26  and  _27
REMARK   11  A    between atoms: _29  and  _31
REMARK   12  A    between atoms: _31  and  _32
REMARK   13  A    between atoms: _34  and  _36
REMARK   14  A    between atoms: _36  and  _37
REMARK   15  A    between atoms: _36  and  _39
REMARK   16  A    between atoms: _39  and  _40
REMARK   17  A    between atoms: _45  and  _46
REMARK   18  A    between atoms: _48  and  _50
REMARK   19  A    between atoms: _50  and  _51
REMARK   20  A    between atoms: _53  and  _55
REMARK   21  A    between atoms: _55  and  _56
REMARK   22  A    between atoms: _55  and  _58
REMARK   23  A    between atoms: _58  and  _59
REMARK   24  A    between atoms: _61  and  _63
REMARK   25  A    between atoms: _63  and  _64
REMARK   26  A    between atoms: _63  and  _66
REMARK   27  A    between atoms: _69  and  _71
REMARK   28  A    between atoms: _71  and  _72
REMARK   29  A    between atoms: _71  and  _74
REMARK   30  A    between atoms: _76  and  _78
REMARK   31  A    between atoms: _78  and  _79
REMARK   32  A    between atoms: _82  and  _84
REMARK   33  A    between atoms: _84  and  _85
REMARK   34  A    between atoms: _84  and  _87
REMARK   35  A    between atoms: _87  and  _88
REMARK   36  A    between atoms: _88  and  _89
REMARK   37  A    between atoms: _89  and  _90
REMARK   38  A    between atoms: _99  and  _101
REMARK   39  A    between atoms: _101  and  _102
REMARK   40  A    between atoms: _101  and  _104
REMARK   41  A    between atoms: _107  and  _109
REMARK   42  A    between atoms: _109  and  _110
REMARK   43  A    between atoms: _113  and  _115
REMARK   44  A    between atoms: _115  and  _116
REMARK   45  A    between atoms: _115  and  _118
REMARK   46  A    between atoms: _121  and  _123
REMARK   47  A    between atoms: _123  and  _124
REMARK   48  A    between atoms: _123  and  _126
REMARK   49  A    between atoms: _126  and  _127
REMARK   50  A    between atoms: _127  and  _128
REMARK   51  A    between atoms: _128  and  _129
REMARK   52  A    between atoms: _129  and  _130
REMARK   53  A    between atoms: _134  and  _136
REMARK   54  A    between atoms: _136  and  _137
REMARK   55  A    between atoms: _136  and  _139
REMARK   56  A    between atoms: _139  and  _140
REMARK   57  A    between atoms: _140  and  _141
REMARK   58  A    between atoms: _141  and  _142
REMARK   59  A    between atoms: _142  and  _143
REMARK   60  A    between atoms: _147  and  _149
REMARK   61  A    between atoms: _149  and  _150
REMARK   62  A    between atoms: _149  and  _152
REMARK   63  A    between atoms: _152  and  _153
REMARK   64  A    between atoms: _156  and  _158
REMARK   65  A    between atoms: _158  and  _159
REMARK   66  A    between atoms: _158  and  _161
REMARK   67  A    between atoms: _161  and  _162
REMARK   68  A    between atoms: _162  and  _163
REMARK   69  A    between atoms: _163  and  _164
REMARK   70  A    between atoms: _173  and  _175
REMARK   71  A    between atoms: _175  and  _176
REMARK   72  A    between atoms: _175  and  _178
REMARK   73  A    between atoms: _178  and  _179
REMARK   74  A    between atoms: _179  and  _180
REMARK   75  A    between atoms: _180  and  _181
REMARK   76  A    between atoms: _190  and  _192
REMARK   77  A    between atoms: _192  and  _193
REMARK   78  A    between atoms: _192  and  _195
REMARK   79  A    between atoms: _195  and  _196
REMARK   80  A    between atoms: _196  and  _197
REMARK   81  A    between atoms: _200  and  _202
REMARK   82  A    between atoms: _202  and  _203
REMARK   83  A    between atoms: _202  and  _205
REMARK   84  A    between atoms: _205  and  _206
REMARK   85  A    between atoms: _209  and  _211
REMARK   86  A    between atoms: _211  and  _212
REMARK   87  A    between atoms: _211  and  _214
REMARK   88  A    between atoms: _214  and  _215
REMARK   89  A    between atoms: _218  and  _220
REMARK   90  A    between atoms: _220  and  _221
REMARK   91  A    between atoms: _220  and  _223
REMARK   92  A    between atoms: _223  and  _224
REMARK   93  A    between atoms: _227  and  _229
REMARK   94  A    between atoms: _229  and  _230
REMARK   95  A    between atoms: _229  and  _232
REMARK   96  A    between atoms: _232  and  _233
REMARK   97  A    between atoms: _233  and  _234
REMARK   98  A    between atoms: _236  and  _238
REMARK   99  A    between atoms: _238  and  _239
REMARK  100  A    between atoms: _238  and  _241
REMARK  101  A    between atoms: _241  and  _242
REMARK  102  A    between atoms: _247  and  _249
REMARK  103  A    between atoms: _249  and  _250
REMARK  104  A    between atoms: _249  and  _252
REMARK  105  A    between atoms: _255  and  _257
REMARK  106  A    between atoms: _257  and  _258
REMARK  107  A    between atoms: _257  and  _260
REMARK  108  A    between atoms: _260  and  _261
REMARK  109  A    between atoms: _264  and  _266
REMARK  110  A    between atoms: _266  and  _267
REMARK  111  A    between atoms: _269  and  _271
REMARK  112  A    between atoms: _271  and  _272
REMARK  113  A    between atoms: _271  and  _274
REMARK  114  A    between atoms: _274  and  _275
REMARK  115  A    between atoms: _278  and  _280
REMARK  116  A    between atoms: _280  and  _281
REMARK  117  A    between atoms: _280  and  _283
REMARK  118  A    between atoms: _283  and  _284
REMARK  119  A    between atoms: _287  and  _289
REMARK  120  A    between atoms: _289  and  _290
REMARK  121  A    between atoms: _289  and  _292
REMARK  122  A    between atoms: _292  and  _293
REMARK  123  A    between atoms: _296  and  _298
REMARK  124  A    between atoms: _298  and  _299
REMARK  125  A    between atoms: _298  and  _301
REMARK  126  A    between atoms: _301  and  _302
REMARK  127  A    between atoms: _307  and  _308
REMARK  128  A    between atoms: _310  and  _312
REMARK  129  A    between atoms: _312  and  _313
REMARK  130  A    between atoms: _312  and  _315
REMARK  131  A    between atoms: _315  and  _316
REMARK  132  A    between atoms: _319  and  _321
REMARK  133  A    between atoms: _321  and  _322
REMARK  134  A    between atoms: _321  and  _324
REMARK  135  A    between atoms: _327  and  _329
REMARK  136  A    between atoms: _329  and  _330
REMARK  137  A    between atoms: _329  and  _332
REMARK  138  A    between atoms: _332  and  _333
REMARK  139  A    between atoms: _336  and  _338
REMARK  140  A    between atoms: _338  and  _339
REMARK  141  A    between atoms: _338  and  _341
REMARK  142  A    between atoms: _341  and  _342
REMARK  143  A    between atoms: _347  and  _349
REMARK  144  A    between atoms: _349  and  _350
REMARK  145  A    between atoms: _349  and  _352
REMARK  146  A    between atoms: _352  and  _353
REMARK  147  A    between atoms: _356  and  _358
REMARK  148  A    between atoms: _358  and  _359
REMARK  149  A    between atoms: _358  and  _361
REMARK  150  A    between atoms: _361  and  _362
REMARK  151  A    between atoms: _362  and  _363
REMARK  152  A    between atoms: _365  and  _367
REMARK  153  A    between atoms: _367  and  _368
REMARK  154  A    between atoms: _370  and  _372
REMARK  155  A    between atoms: _372  and  _373
REMARK  156  A    between atoms: _376  and  _378
REMARK  157  A    between atoms: _378  and  _379
REMARK  158  A    between atoms: _378  and  _381
REMARK  159  A    between atoms: _381  and  _382
REMARK  160  A    between atoms: _385  and  _387
REMARK  161  A    between atoms: _387  and  _388
REMARK  162  A    between atoms: _387  and  _390
REMARK  163  A    between atoms: _390  and  _391
REMARK  164  A    between atoms: _396  and  _398
REMARK  165  A    between atoms: _398  and  _399
REMARK  166  A    between atoms: _398  and  _401
REMARK  167  A    between atoms: _401  and  _402
REMARK  168  A    between atoms: _407  and  _409
REMARK  169  A    between atoms: _409  and  _410
REMARK  170  A    between atoms: _412  and  _414
REMARK  171  A    between atoms: _414  and  _415
REMARK  172  A    between atoms: _414  and  _417
REMARK  173  A    between atoms: _417  and  _418
REMARK  174  A    between atoms: _421  and  _423
REMARK  175  A    between atoms: _423  and  _424
REMARK  176  A    between atoms: _423  and  _426
REMARK  177  A    between atoms: _426  and  _427
REMARK  178  A    between atoms: _432  and  _433
REMARK  179  A    between atoms: _435  and  _437
REMARK  180  A    between atoms: _437  and  _438
REMARK  181  A    between atoms: _437  and  _440
REMARK  182  A    between atoms: _440  and  _441
REMARK  183  A    between atoms: _444  and  _446
REMARK  184  A    between atoms: _446  and  _447
REMARK  185  A    between atoms: _446  and  _449
REMARK  186  A    between atoms: _449  and  _450
REMARK  187  A    between atoms: _453  and  _455
REMARK  188  A    between atoms: _455  and  _456
REMARK  189  A    between atoms: _455  and  _458
REMARK  190  A    between atoms: _458  and  _459
REMARK  191  A    between atoms: _462  and  _464
REMARK  192  A    between atoms: _464  and  _465
REMARK  193  A    between atoms: _464  and  _467
REMARK  194  A    between atoms: _467  and  _468
REMARK  195  A    between atoms: _473  and  _475
REMARK  196  A    between atoms: _475  and  _476
REMARK  197  A    between atoms: _475  and  _478
REMARK  198  A    between atoms: _478  and  _479
REMARK  199  A    between atoms: _479  and  _480
REMARK  200  A    between atoms: _480  and  _481
REMARK  201  A    between atoms: _490  and  _492
REMARK  202  A    between atoms: _492  and  _493
REMARK  203  A    between atoms: _492  and  _495
REMARK  204  A    between atoms: _495  and  _496
REMARK  205  A    between atoms: _499  and  _501
REMARK  206  A    between atoms: _501  and  _502
REMARK  207  A    between atoms: _501  and  _504
REMARK  208  A    between atoms: _504  and  _505
REMARK  209  A    between atoms: _508  and  _510
REMARK  210  A    between atoms: _510  and  _511
REMARK  211  A    between atoms: _510  and  _513
REMARK  212  A    between atoms: _513  and  _514
REMARK  213  A    between atoms: _516  and  _518
REMARK  214  A    between atoms: _518  and  _519
REMARK  215  A    between atoms: _518  and  _521
REMARK  216  A    between atoms: _521  and  _522
REMARK  217  A    between atoms: _527  and  _529
REMARK  218  A    between atoms: _529  and  _530
REMARK  219  A    between atoms: _533  and  _535
REMARK  220  A    between atoms: _535  and  _536
REMARK  221  A    between atoms: _535  and  _538
REMARK  222  A    between atoms: _538  and  _539
REMARK  223  A    between atoms: _539  and  _540
REMARK  224  A    between atoms: _540  and  _541
REMARK  225  A    between atoms: _541  and  _542
REMARK  226  A    between atoms: _546  and  _548
REMARK  227  A    between atoms: _548  and  _549
REMARK  228  A    between atoms: _548  and  _551
REMARK  229  A    between atoms: _551  and  _552
REMARK  230  A    between atoms: _555  and  _557
REMARK  231  A    between atoms: _557  and  _558
REMARK  232  A    between atoms: _557  and  _560
REMARK  233  A    between atoms: _560  and  _561
REMARK  234  A    between atoms: _564  and  _566
REMARK  235  A    between atoms: _566  and  _567
REMARK  236  A    between atoms: _566  and  _569
REMARK  237  A    between atoms: _569  and  _570
REMARK  238  A    between atoms: _573  and  _575
REMARK  239  A    between atoms: _575  and  _576
REMARK  240  A    between atoms: _575  and  _578
REMARK  241  A    between atoms: _578  and  _579
REMARK  242  A    between atoms: _585  and  _587
REMARK  243  A    between atoms: _587  and  _588
REMARK  244  A    between atoms: _590  and  _592
REMARK  245  A    between atoms: _592  and  _593
REMARK  246  A    between atoms: _592  and  _595
REMARK  247  A    between atoms: _595  and  _596
REMARK                            x       y       z     vdW  Elec       q    Type
REMARK                         _______ _______ _______ _____ _____    ______ ____
ROOT
ATOM      1  CA  ARG A   4      10.233   8.648  13.902  0.00  0.00    +0.149 C 
ENDROOT
BRANCH   1   2
ATOM      2  C   ARG A   4      10.040   8.825  15.418  0.00  0.00    +0.241 C 
ATOM      3  N   ASP A   5       9.285   7.958  16.068  0.00  0.00    -0.297 N 
ATOM      4  H   ASP A   5       8.862   7.161  15.550  0.00  0.00    +0.150 HD
ATOM      5  O   ARG A   4      10.542   9.788  15.980  0.00  0.00    -0.273 OA
BRANCH   3   6
ATOM      6  CA  ASP A   5       9.032   8.096  17.499  0.00  0.00    +0.160 C 
BRANCH   6   7
ATOM      7  C   ASP A   5       9.147   6.771  18.230  0.00  0.00    +0.241 C 
ATOM      8  O   ASP A   5       8.373   6.459  19.168  0.00  0.00    -0.273 OA
ATOM      9  N   LEU A   6      10.162   6.010  17.837  0.00  0.00    -0.298 N 
ATOM     10  H   LEU A   6      10.769   6.342  17.061  0.00  0.00    +0.150 HD
BRANCH   9  11
ATOM     11  CA  LEU A   6      10.452   4.721  18.462  0.00  0.00    +0.137 C 
BRANCH  11  12
ATOM     12  C   LEU A   6      11.022   4.982  19.878  0.00  0.00    +0.227 C 
ATOM     13  O   LEU A   6      11.872   5.842  20.084  0.00  0.00    -0.286 OA
ENDBRANCH  11  12
BRANCH  11  14
ATOM     14  CB  LEU A   6      11.368   3.897  17.547  0.00  0.00    +0.028 C 
BRANCH  14  15
ATOM     15  CG  LEU A   6      11.176   2.397  17.320  0.00  0.00    +0.002 C 
ATOM     16  CD2 LEU A   6       9.747   1.970  16.929  0.00  0.00    +0.000 C 
ATOM     17  CD1 LEU A   6      12.176   1.962  16.228  0.00  0.00    +0.000 C 
ENDBRANCH  14  15
ENDBRANCH  11  14
ENDBRANCH   9  11
ENDBRANCH   6   7
BRANCH   6  18
ATOM     18  CB  ASP A   5       7.675   8.769  17.768  0.00  0.00    +0.143 C 
BRANCH  18  19
ATOM     19  CG  ASP A   5       7.635   9.466  19.111  0.00  0.00    +0.367 C 
ATOM     20  OD2 ASP A   5       6.572   9.720  19.717  0.00  0.00    -0.246 OA
ATOM     21  OD1 ASP A   5       8.722   9.775  19.649  0.00  0.00    -0.246 OA
ENDBRANCH  18  19
ENDBRANCH   6  18
ENDBRANCH   3   6
ENDBRANCH   1   2
BRANCH   1  24
ATOM     22  C   HIS A   3       8.552   6.957  13.095  0.00  0.00    +0.241 C 
ATOM     23  O   HIS A   3       7.557   7.649  13.328  0.00  0.00    -0.273 OA
ATOM     24  N   ARG A   4       9.812   7.360  13.313  0.00  0.00    -0.297 N 
ATOM     25  H   ARG A   4      10.568   6.700  13.040  0.00  0.00    +0.150 HD
BRANCH  22  26
ATOM     26  CA  HIS A   3       8.391   5.565  12.450  0.00  0.00    +0.155 C 
BRANCH  26  28
ATOM     27  C   ILE A   2       8.839   6.113  10.129  0.00  0.00    +0.241 C 
ATOM     28  N   HIS A   3       9.175   5.447  11.224  0.00  0.00    -0.297 N 
ATOM     29  H   HIS A   3      10.012   4.829  11.210  0.00  0.00    +0.150 HD
ATOM     30  O   ILE A   2       7.923   6.889  10.124  0.00  0.00    -0.273 OA
BRANCH  27  31
ATOM     31  CA  ILE A   2       9.674   5.904   8.859  0.00  0.00    +0.148 C 
BRANCH  31  33
ATOM     32  C   ILE A   1       8.764   4.455   7.088  0.00  0.00    +0.238 C 
ATOM     33  N   ILE A   2       8.826   5.636   7.699  0.00  0.00    -0.297 N 
ATOM     34  H   ILE A   2       8.238   6.411   7.331  0.00  0.00    +0.150 HD
ATOM     35  O   ILE A   1       9.531   3.511   7.331  0.00  0.00    -0.274 OA
BRANCH  32  36
ATOM     36  CA  ILE A   1       7.709   4.295   5.993  0.00  0.00    +0.145 C 
BRANCH  36  37
ATOM     37  CB  ILE A   1       6.555   3.354   6.446  0.00  0.00    +0.025 C 
ATOM     38  CG2 ILE A   1       5.946   3.858   7.789  0.00  0.00    +0.002 C 
BRANCH  37  39
ATOM     39  CG1 ILE A   1       5.458   3.316   5.386  0.00  0.00    +0.002 C 
ATOM     40  CD1 ILE A   1       4.524   2.089   5.475  0.00  0.00    +0.000 C 
ENDBRANCH  37  39
ENDBRANCH  36  37
BRANCH  36  41
ATOM     41  N   ILE A   1       8.400   3.758   4.820  0.00  0.00    -0.238 NA
ATOM     42  H   ILE A   1       8.562   2.734   4.737  0.00  0.00    +0.142 HD
ENDBRANCH  36  41
ENDBRANCH  32  36
ENDBRANCH  31  33
BRANCH  31  43
ATOM     43  CB  ILE A   2      10.555   7.154   8.624  0.00  0.00    +0.027 C 
ATOM     44  CG2 ILE A   2      11.493   7.358   9.848  0.00  0.00    +0.002 C 
BRANCH  43  45
ATOM     45  CG1 ILE A   2      11.372   6.989   7.344  0.00  0.00    +0.002 C 
ATOM     46  CD1 ILE A   2      12.240   8.146   7.043  0.00  0.00    +0.000 C 
ENDBRANCH  43  45
ENDBRANCH  31  43
ENDBRANCH  27  31
ENDBRANCH  26  28
BRANCH  26  47
ATOM     47  CB  HIS A   3       8.740   4.440  13.447  0.00  0.00    +0.076 C 
BRANCH  47  48
ATOM     48  CG  HIS A   3       7.791   4.362  14.602  0.00  0.00    +0.082 A 
ATOM     49  ND1 HIS A   3       7.667   5.373  15.528  0.00  0.00    -0.227 NA
ATOM     50  CE1 HIS A   3       6.721   5.066  16.397  0.00  0.00    +0.199 A 
ATOM     51  NE2 HIS A   3       6.217   3.892  16.064  0.00  0.00    -0.221 NA
ATOM     52  CD2 HIS A   3       6.868   3.437  14.937  0.00  0.00    +0.115 A 
ENDBRANCH  47  48
ENDBRANCH  26  47
ENDBRANCH  22  26
ENDBRANCH   1  24
BRANCH   1  53
ATOM     53  CB  ARG A   4       9.573   9.852  13.212  0.00  0.00    +0.033 C 
BRANCH  53  54
ATOM     54  CG  ARG A   4       9.990  10.118  11.808  0.00  0.00    +0.045 C 
BRANCH  54  55
ATOM     55  CD  ARG A   4       9.341  11.352  11.265  0.00  0.00    +0.174 C 
BRANCH  55  56
ATOM     56  NE  ARG A   4       9.721  11.591   9.876  0.00  0.00    -0.265 N 
ATOM     57  HE  ARG A   4      10.499  12.259   9.700  0.00  0.00    +0.259 HD
ATOM     58  CZ  ARG A   4       9.147  11.018   8.812  0.00  0.00    +0.342 C 
ATOM     59  NH2 ARG A   4       8.152  10.130   8.953  0.00  0.00    -0.292 N 
ATOM     60 HH21 ARG A   4       7.813   9.875   9.903  0.00  0.00    +0.255 HD
ATOM     61 HH22 ARG A   4       7.719   9.696   8.113  0.00  0.00    +0.255 HD
ATOM     62  NH1 ARG A   4       9.575  11.339   7.591  0.00  0.00    -0.292 N 
ATOM     63 HH11 ARG A   4      10.346  12.027   7.474  0.00  0.00    +0.255 HD
ATOM     64 HH12 ARG A   4       9.138  10.901   6.755  0.00  0.00    +0.255 HD
ENDBRANCH  55  56
ENDBRANCH  54  55
ENDBRANCH  53  54
ENDBRANCH   1  53
TORSDOF 26
REMARK  Name = ../refined-set-2016/2bak/2bak_pocket.pdb
REMARK  247 active torsions:
REMARK  status: ('A' for Active; 'I' for Inactive)
REMARK    1  A    between atoms: _2  and  _3
REMARK    2  A    between atoms: _8  and  _10
REMARK    3  A    between atoms: _10  and  _11
REMARK    4  A    between atoms: _10  and  _13
REMARK    5  A    between atoms: _16  and  _18
REMARK    6  A    between atoms: _18  and  _19
REMARK    7  A    between atoms: _21  and  _23
REMARK    8  A    between atoms: _23  and  _24
REMARK    9  A    between atoms: _23  and  _26
REMARK   10  A    between atoms: _26  and  _27
REMARK   11  A    between atoms: _29  and  _31
REMARK   12  A    between atoms: _31  and  _32
REMARK   13  A    between atoms: _34  and  _36
REMARK   14  A    between atoms: _36  and  _37
REMARK   15  A    between atoms: _36  and  _39
REMARK   16  A    between atoms: _39  and  _40
REMARK   17  A    between atoms: _45  and  _46
REMARK   18  A    between atoms: _48  and  _50
REMARK   19  A    between atoms: _50  and  _51
REMARK   20  A    between atoms: _53  and  _55
REMARK   21  A    between atoms: _55  and  _56
REMARK   22  A    between atoms: _55  and  _58
REMARK   23  A    between atoms: _58  and  _59
REMARK   24  A    between atoms: _61  and  _63
REMARK   25  A    between atoms: _63  and  _64
REMARK   26  A    between atoms: _63  and  _66
REMARK   27  A    between atoms: _69  and  _71
REMARK   28  A    between atoms: _71  and  _72
REMARK   29  A    between atoms: _71  and  _74
REMARK   30  A    between atoms: _76  and  _78
REMARK   31  A    between atoms: _78  and  _79
REMARK   32  A    between atoms: _82  and  _84
REMARK   33  A    between atoms: _84  and  _85
REMARK   34  A    between atoms: _84  and  _87
REMARK   35  A    between atoms: _87  and  _88
REMARK   36  A    between atoms: _88  and  _89
REMARK   37  A    between atoms: _89  and  _90
REMARK   38  A    between atoms: _99  and  _101
REMARK   39  A    between atoms: _101  and  _102
REMARK   40  A    between atoms: _101  and  _104
REMARK   41  A    between atoms: _107  and  _109
REMARK   42  A    between atoms: _109  and  _110
REMARK   43  A    between atoms: _113  and  _115
REMARK   44  A    between atoms: _115  and  _116
REMARK   45  A    between atoms: _115  and  _118
REMARK   46  A    between atoms: _121  and  _123
REMARK   47  A    between atoms: _123  and  _124
REMARK   48  A    between atoms: _123  and  _126
REMARK   49  A    between atoms: _126  and  _127
REMARK   50  A    between atoms: _127  and  _128
REMARK   51  A    between atoms: _128  and  _129
REMARK   52  A    between atoms: _129  and  _130
REMARK   53  A    between atoms: _134  and  _136
REMARK   54  A    between atoms: _136  and  _137
REMARK   55  A    between atoms: _136  and  _139
REMARK   56  A    between atoms: _139  and  _140
REMARK   57  A    between atoms: _140  and  _141
REMARK   58  A    between atoms: _141  and  _142
REMARK   59  A    between atoms: _142  and  _143
REMARK   60  A    between atoms: _147  and  _149
REMARK   61  A    between atoms: _149  and  _150
REMARK   62  A    between atoms: _149  and  _152
REMARK   63  A    between atoms: _152  and  _153
REMARK   64  A    between atoms: _156  and  _158
REMARK   65  A    between atoms: _158  and  _159
REMARK   66  A    between atoms: _158  and  _161
REMARK   67  A    between atoms: _161  and  _162
REMARK   68  A    between atoms: _162  and  _163
REMARK   69  A    between atoms: _163  and  _164
REMARK   70  A    between atoms: _173  and  _175
REMARK   71  A    between atoms: _175  and  _176
REMARK   72  A    between atoms: _175  and  _178
REMARK   73  A    between atoms: _178  and  _179
REMARK   74  A    between atoms: _179  and  _180
REMARK   75  A    between atoms: _180  and  _181
REMARK   76  A    between atoms: _190  and  _192
REMARK   77  A    between atoms: _192  and  _193
REMARK   78  A    between atoms: _192  and  _195
REMARK   79  A    between atoms: _195  and  _196
REMARK   80  A    between atoms: _196  and  _197
REMARK   81  A    between atoms: _200  and  _202
REMARK   82  A    between atoms: _202  and  _203
REMARK   83  A    between atoms: _202  and  _205
REMARK   84  A    between atoms: _205  and  _206
REMARK   85  A    between atoms: _209  and  _211
REMARK   86  A    between atoms: _211  and  _212
REMARK   87  A    between atoms: _211  and  _214
REMARK   88  A    between atoms: _214  and  _215
REMARK   89  A    between atoms: _218  and  _220
REMARK   90  A    between atoms: _220  and  _221
REMARK   91  A    between atoms: _220  and  _223
REMARK   92  A    between atoms: _223  and  _224
REMARK   93  A    between atoms: _227  and  _229
REMARK   94  A    between atoms: _229  and  _230
REMARK   95  A    between atoms: _229  and  _232
REMARK   96  A    between atoms: _232  and  _233
REMARK   97  A    between atoms: _233  and  _234
REMARK   98  A    between atoms: _236  and  _238
REMARK   99  A    between atoms: _238  and  _239
REMARK  100  A    between atoms: _238  and  _241
REMARK  101  A    between atoms: _241  and  _242
REMARK  102  A    between atoms: _247  and  _249
REMARK  103  A    between atoms: _249  and  _250
REMARK  104  A    between atoms: _249  and  _252
REMARK  105  A    between atoms: _255  and  _257
REMARK  106  A    between atoms: _257  and  _258
REMARK  107  A    between atoms: _257  and  _260
REMARK  108  A    between atoms: _260  and  _261
REMARK  109  A    between atoms: _264  and  _266
REMARK  110  A    between atoms: _266  and  _267
REMARK  111  A    between atoms: _269  and  _271
REMARK  112  A    between atoms: _271  and  _272
REMARK  113  A    between atoms: _271  and  _274
REMARK  114  A    between atoms: _274  and  _275
REMARK  115  A    between atoms: _278  and  _280
REMARK  116  A    between atoms: _280  and  _281
REMARK  117  A    between atoms: _280  and  _283
REMARK  118  A    between atoms: _283  and  _284
REMARK  119  A    between atoms: _287  and  _289
REMARK  120  A    between atoms: _289  and  _290
REMARK  121  A    between atoms: _289  and  _292
REMARK  122  A    between atoms: _292  and  _293
REMARK  123  A    between atoms: _296  and  _298
REMARK  124  A    between atoms: _298  and  _299
REMARK  125  A    between atoms: _298  and  _301
REMARK  126  A    between atoms: _301  and  _302
REMARK  127  A    between atoms: _307  and  _308
REMARK  128  A    between atoms: _310  and  _312
REMARK  129  A    between atoms: _312  and  _313
REMARK  130  A    between atoms: _312  and  _315
REMARK  131  A    between atoms: _315  and  _316
REMARK  132  A    between atoms: _319  and  _321
REMARK  133  A    between atoms: _321  and  _322
REMARK  134  A    between atoms: _321  and  _324
REMARK  135  A    between atoms: _327  and  _329
REMARK  136  A    between atoms: _329  and  _330
REMARK  137  A    between atoms: _329  and  _332
REMARK  138  A    between atoms: _332  and  _333
REMARK  139  A    between atoms: _336  and  _338
REMARK  140  A    between atoms: _338  and  _339
REMARK  141  A    between atoms: _338  and  _341
REMARK  142  A    between atoms: _341  and  _342
REMARK  143  A    between atoms: _347  and  _349
REMARK  144  A    between atoms: _349  and  _350
REMARK  145  A    between atoms: _349  and  _352
REMARK  146  A    between atoms: _352  and  _353
REMARK  147  A    between atoms: _356  and  _358
REMARK  148  A    between atoms: _358  and  _359
REMARK  149  A    between atoms: _358  and  _361
REMARK  150  A    between atoms: _361  and  _362
REMARK  151  A    between atoms: _362  and  _363
REMARK  152  A    between atoms: _365  and  _367
REMARK  153  A    between atoms: _367  and  _368
REMARK  154  A    between atoms: _370  and  _372
REMARK  155  A    between atoms: _372  and  _373
REMARK  156  A    between atoms: _376  and  _378
REMARK  157  A    between atoms: _378  and  _379
REMARK  158  A    between atoms: _378  and  _381
REMARK  159  A    between atoms: _381  and  _382
REMARK  160  A    between atoms: _385  and  _387
REMARK  161  A    between atoms: _387  and  _388
REMARK  162  A    between atoms: _387  and  _390
REMARK  163  A    between atoms: _390  and  _391
REMARK  164  A    between atoms: _396  and  _398
REMARK  165  A    between atoms: _398  and  _399
REMARK  166  A    between atoms: _398  and  _401
REMARK  167  A    between atoms: _401  and  _402
REMARK  168  A    between atoms: _407  and  _409
REMARK  169  A    between atoms: _409  and  _410
REMARK  170  A    between atoms: _412  and  _414
REMARK  171  A    between atoms: _414  and  _415
REMARK  172  A    between atoms: _414  and  _417
REMARK  173  A    between atoms: _417  and  _418
REMARK  174  A    between atoms: _421  and  _423
REMARK  175  A    between atoms: _423  and  _424
REMARK  176  A    between atoms: _423  and  _426
REMARK  177  A    between atoms: _426  and  _427
REMARK  178  A    between atoms: _432  and  _433
REMARK  179  A    between atoms: _435  and  _437
REMARK  180  A    between atoms: _437  and  _438
REMARK  181  A    between atoms: _437  and  _440
REMARK  182  A    between atoms: _440  and  _441
REMARK  183  A    between atoms: _444  and  _446
REMARK  184  A    between atoms: _446  and  _447
REMARK  185  A    between atoms: _446  and  _449
REMARK  186  A    between atoms: _449  and  _450
REMARK  187  A    between atoms: _453  and  _455
REMARK  188  A    between atoms: _455  and  _456
REMARK  189  A    between atoms: _455  and  _458
REMARK  190  A    between atoms: _458  and  _459
REMARK  191  A    between atoms: _462  and  _464
REMARK  192  A    between atoms: _464  and  _465
REMARK  193  A    between atoms: _464  and  _467
REMARK  194  A    between atoms: _467  and  _468
REMARK  195  A    between atoms: _473  and  _475
REMARK  196  A    between atoms: _475  and  _476
REMARK  197  A    between atoms: _475  and  _478
REMARK  198  A    between atoms: _478  and  _479
REMARK  199  A    between atoms: _479  and  _480
REMARK  200  A    between atoms: _480  and  _481
REMARK  201  A    between atoms: _490  and  _492
REMARK  202  A    between atoms: _492  and  _493
REMARK  203  A    between atoms: _492  and  _495
REMARK  204  A    between atoms: _495  and  _496
REMARK  205  A    between atoms: _499  and  _501
REMARK  206  A    between atoms: _501  and  _502
REMARK  207  A    between atoms: _501  and  _504
REMARK  208  A    between atoms: _504  and  _505
REMARK  209  A    between atoms: _508  and  _510
REMARK  210  A    between atoms: _510  and  _511
REMARK  211  A    between atoms: _510  and  _513
REMARK  212  A    between atoms: _513  and  _514
REMARK  213  A    between atoms: _516  and  _518
REMARK  214  A    between atoms: _518  and  _519
REMARK  215  A    between atoms: _518  and  _521
REMARK  216  A    between atoms: _521  and  _522
REMARK  217  A    between atoms: _527  and  _529
REMARK  218  A    between atoms: _529  and  _530
REMARK  219  A    between atoms: _533  and  _535
REMARK  220  A    between atoms: _535  and  _536
REMARK  221  A    between atoms: _535  and  _538
REMARK  222  A    between atoms: _538  and  _539
REMARK  223  A    between atoms: _539  and  _540
REMARK  224  A    between atoms: _540  and  _541
REMARK  225  A    between atoms: _541  and  _542
REMARK  226  A    between atoms: _546  and  _548
REMARK  227  A    between atoms: _548  and  _549
REMARK  228  A    between atoms: _548  and  _551
REMARK  229  A    between atoms: _551  and  _552
REMARK  230  A    between atoms: _555  and  _557
REMARK  231  A    between atoms: _557  and  _558
REMARK  232  A    between atoms: _557  and  _560
REMARK  233  A    between atoms: _560  and  _561
REMARK  234  A    between atoms: _564  and  _566
REMARK  235  A    between atoms: _566  and  _567
REMARK  236  A    between atoms: _566  and  _569
REMARK  237  A    between atoms: _569  and  _570
REMARK  238  A    between atoms: _573  and  _575
REMARK  239  A    between atoms: _575  and  _576
REMARK  240  A    between atoms: _575  and  _578
REMARK  241  A    between atoms: _578  and  _579
REMARK  242  A    between atoms: _585  and  _587
REMARK  243  A    between atoms: _587  and  _588
REMARK  244  A    between atoms: _590  and  _592
REMARK  245  A    between atoms: _592  and  _593
REMARK  246  A    between atoms: _592  and  _595
REMARK  247  A    between atoms: _595  and  _596
REMARK                            x       y       z     vdW  Elec       q    Type
REMARK                         _______ _______ _______ _____ _____    ______ ____
ROOT
ATOM      1  C   SER A   1       5.433   2.784  24.148  0.00  0.00    +0.241 C 
ATOM      2  O   SER A   1       4.213   2.623  24.197  0.00  0.00    -0.274 OA
ATOM      3  N   ASN A   2       6.104   2.819  23.007  0.00  0.00    -0.298 N 
ATOM      4  H   ASN A   2       7.098   3.126  23.010  0.00  0.00    +0.150 HD
ENDROOT
BRANCH   1   5
ATOM      5  CA  SER A   1       6.239   2.962  25.423  0.00  0.00    +0.174 C 
BRANCH   5   6
ATOM      6  N   SER A   1       7.671   2.886  25.137  0.00  0.00    -0.236 NA
ATOM      7  H   SER A   1       8.209   3.767  25.010  0.00  0.00    +0.142 HD
ENDBRANCH   5   6
BRANCH   5   8
ATOM      8  CB  SER A   1       5.882   4.289  26.086  0.00  0.00    +0.163 C 
BRANCH   8   9
ATOM      9  OG  SER A   1       5.917   5.346  25.150  0.00  0.00    -0.380 OA
ATOM     10  H   SER A   1       5.266   5.166  24.426  0.00  0.00    +0.211 HD
ENDBRANCH   8   9
ENDBRANCH   5   8
ENDBRANCH   1   5
BRANCH   3  11
ATOM     11  CA  ASN A   2       5.474   2.433  21.736  0.00  0.00    +0.146 C 
BRANCH  11  12
ATOM     12  C   ASN A   2       5.743   0.979  21.312  0.00  0.00    +0.227 C 
ATOM     13  O   ASN A   2       5.534   0.633  20.158  0.00  0.00    -0.286 OA
ENDBRANCH  11  12
BRANCH  11  14
ATOM     14  CB  ASN A   2       5.877   3.420  20.631  0.00  0.00    +0.112 C 
BRANCH  14  15
ATOM     15  CG  ASN A   2       5.093   4.746  20.719  0.00  0.00    +0.222 C 
ATOM     16  ND2 ASN A   2       3.875   4.679  21.265  0.00  0.00    -0.329 N 
ATOM     17 HD21 ASN A   2       3.502   3.765  21.593  0.00  0.00    +0.145 HD
ATOM     18 HD22 ASN A   2       3.300   5.540  21.362  0.00  0.00    +0.145 HD
ATOM     19  OD1 ASN A   2       5.586   5.822  20.309  0.00  0.00    -0.275 OA
ENDBRANCH  14  15
ENDBRANCH  11  14
ENDBRANCH   3  11
TORSDOF 8
REMARK  Name = ../refined-set-2016/2bak/2bak_pocket.pdb
REMARK  247 active torsions:
REMARK  status: ('A' for Active; 'I' for Inactive)
REMARK    1  A    between atoms: _2  and  _3
REMARK    2  A    between atoms: _8  and  _10
REMARK    3  A    between atoms: _10  and  _11
REMARK    4  A    between atoms: _10  and  _13
REMARK    5  A    between atoms: _16  and  _18
REMARK    6  A    between atoms: _18  and  _19
REMARK    7  A    between atoms: _21  and  _23
REMARK    8  A    between atoms: _23  and  _24
REMARK    9  A    between atoms: _23  and  _26
REMARK   10  A    between atoms: _26  and  _27
REMARK   11  A    between atoms: _29  and  _31
REMARK   12  A    between atoms: _31  and  _32
REMARK   13  A    between atoms: _34  and  _36
REMARK   14  A    between atoms: _36  and  _37
REMARK   15  A    between atoms: _36  and  _39
REMARK   16  A    between atoms: _39  and  _40
REMARK   17  A    between atoms: _45  and  _46
REMARK   18  A    between atoms: _48  and  _50
REMARK   19  A    between atoms: _50  and  _51
REMARK   20  A    between atoms: _53  and  _55
REMARK   21  A    between atoms: _55  and  _56
REMARK   22  A    between atoms: _55  and  _58
REMARK   23  A    between atoms: _58  and  _59
REMARK   24  A    between atoms: _61  and  _63
REMARK   25  A    between atoms: _63  and  _64
REMARK   26  A    between atoms: _63  and  _66
REMARK   27  A    between atoms: _69  and  _71
REMARK   28  A    between atoms: _71  and  _72
REMARK   29  A    between atoms: _71  and  _74
REMARK   30  A    between atoms: _76  and  _78
REMARK   31  A    between atoms: _78  and  _79
REMARK   32  A    between atoms: _82  and  _84
REMARK   33  A    between atoms: _84  and  _85
REMARK   34  A    between atoms: _84  and  _87
REMARK   35  A    between atoms: _87  and  _88
REMARK   36  A    between atoms: _88  and  _89
REMARK   37  A    between atoms: _89  and  _90
REMARK   38  A    between atoms: _99  and  _101
REMARK   39  A    between atoms: _101  and  _102
REMARK   40  A    between atoms: _101  and  _104
REMARK   41  A    between atoms: _107  and  _109
REMARK   42  A    between atoms: _109  and  _110
REMARK   43  A    between atoms: _113  and  _115
REMARK   44  A    between atoms: _115  and  _116
REMARK   45  A    between atoms: _115  and  _118
REMARK   46  A    between atoms: _121  and  _123
REMARK   47  A    between atoms: _123  and  _124
REMARK   48  A    between atoms: _123  and  _126
REMARK   49  A    between atoms: _126  and  _127
REMARK   50  A    between atoms: _127  and  _128
REMARK   51  A    between atoms: _128  and  _129
REMARK   52  A    between atoms: _129  and  _130
REMARK   53  A    between atoms: _134  and  _136
REMARK   54  A    between atoms: _136  and  _137
REMARK   55  A    between atoms: _136  and  _139
REMARK   56  A    between atoms: _139  and  _140
REMARK   57  A    between atoms: _140  and  _141
REMARK   58  A    between atoms: _141  and  _142
REMARK   59  A    between atoms: _142  and  _143
REMARK   60  A    between atoms: _147  and  _149
REMARK   61  A    between atoms: _149  and  _150
REMARK   62  A    between atoms: _149  and  _152
REMARK   63  A    between atoms: _152  and  _153
REMARK   64  A    between atoms: _156  and  _158
REMARK   65  A    between atoms: _158  and  _159
REMARK   66  A    between atoms: _158  and  _161
REMARK   67  A    between atoms: _161  and  _162
REMARK   68  A    between atoms: _162  and  _163
REMARK   69  A    between atoms: _163  and  _164
REMARK   70  A    between atoms: _173  and  _175
REMARK   71  A    between atoms: _175  and  _176
REMARK   72  A    between atoms: _175  and  _178
REMARK   73  A    between atoms: _178  and  _179
REMARK   74  A    between atoms: _179  and  _180
REMARK   75  A    between atoms: _180  and  _181
REMARK   76  A    between atoms: _190  and  _192
REMARK   77  A    between atoms: _192  and  _193
REMARK   78  A    between atoms: _192  and  _195
REMARK   79  A    between atoms: _195  and  _196
REMARK   80  A    between atoms: _196  and  _197
REMARK   81  A    between atoms: _200  and  _202
REMARK   82  A    between atoms: _202  and  _203
REMARK   83  A    between atoms: _202  and  _205
REMARK   84  A    between atoms: _205  and  _206
REMARK   85  A    between atoms: _209  and  _211
REMARK   86  A    between atoms: _211  and  _212
REMARK   87  A    between atoms: _211  and  _214
REMARK   88  A    between atoms: _214  and  _215
REMARK   89  A    between atoms: _218  and  _220
REMARK   90  A    between atoms: _220  and  _221
REMARK   91  A    between atoms: _220  and  _223
REMARK   92  A    between atoms: _223  and  _224
REMARK   93  A    between atoms: _227  and  _229
REMARK   94  A    between atoms: _229  and  _230
REMARK   95  A    between atoms: _229  and  _232
REMARK   96  A    between atoms: _232  and  _233
REMARK   97  A    between atoms: _233  and  _234
REMARK   98  A    between atoms: _236  and  _238
REMARK   99  A    between atoms: _238  and  _239
REMARK  100  A    between atoms: _238  and  _241
REMARK  101  A    between atoms: _241  and  _242
REMARK  102  A    between atoms: _247  and  _249
REMARK  103  A    between atoms: _249  and  _250
REMARK  104  A    between atoms: _249  and  _252
REMARK  105  A    between atoms: _255  and  _257
REMARK  106  A    between atoms: _257  and  _258
REMARK  107  A    between atoms: _257  and  _260
REMARK  108  A    between atoms: _260  and  _261
REMARK  109  A    between atoms: _264  and  _266
REMARK  110  A    between atoms: _266  and  _267
REMARK  111  A    between atoms: _269  and  _271
REMARK  112  A    between atoms: _271  and  _272
REMARK  113  A    between atoms: _271  and  _274
REMARK  114  A    between atoms: _274  and  _275
REMARK  115  A    between atoms: _278  and  _280
REMARK  116  A    between atoms: _280  and  _281
REMARK  117  A    between atoms: _280  and  _283
REMARK  118  A    between atoms: _283  and  _284
REMARK  119  A    between atoms: _287  and  _289
REMARK  120  A    between atoms: _289  and  _290
REMARK  121  A    between atoms: _289  and  _292
REMARK  122  A    between atoms: _292  and  _293
REMARK  123  A    between atoms: _296  and  _298
REMARK  124  A    between atoms: _298  and  _299
REMARK  125  A    between atoms: _298  and  _301
REMARK  126  A    between atoms: _301  and  _302
REMARK  127  A    between atoms: _307  and  _308
REMARK  128  A    between atoms: _310  and  _312
REMARK  129  A    between atoms: _312  and  _313
REMARK  130  A    between atoms: _312  and  _315
REMARK  131  A    between atoms: _315  and  _316
REMARK  132  A    between atoms: _319  and  _321
REMARK  133  A    between atoms: _321  and  _322
REMARK  134  A    between atoms: _321  and  _324
REMARK  135  A    between atoms: _327  and  _329
REMARK  136  A    between atoms: _329  and  _330
REMARK  137  A    between atoms: _329  and  _332
REMARK  138  A    between atoms: _332  and  _333
REMARK  139  A    between atoms: _336  and  _338
REMARK  140  A    between atoms: _338  and  _339
REMARK  141  A    between atoms: _338  and  _341
REMARK  142  A    between atoms: _341  and  _342
REMARK  143  A    between atoms: _347  and  _349
REMARK  144  A    between atoms: _349  and  _350
REMARK  145  A    between atoms: _349  and  _352
REMARK  146  A    between atoms: _352  and  _353
REMARK  147  A    between atoms: _356  and  _358
REMARK  148  A    between atoms: _358  and  _359
REMARK  149  A    between atoms: _358  and  _361
REMARK  150  A    between atoms: _361  and  _362
REMARK  151  A    between atoms: _362  and  _363
REMARK  152  A    between atoms: _365  and  _367
REMARK  153  A    between atoms: _367  and  _368
REMARK  154  A    between atoms: _370  and  _372
REMARK  155  A    between atoms: _372  and  _373
REMARK  156  A    between atoms: _376  and  _378
REMARK  157  A    between atoms: _378  and  _379
REMARK  158  A    between atoms: _378  and  _381
REMARK  159  A    between atoms: _381  and  _382
REMARK  160  A    between atoms: _385  and  _387
REMARK  161  A    between atoms: _387  and  _388
REMARK  162  A    between atoms: _387  and  _390
REMARK  163  A    between atoms: _390  and  _391
REMARK  164  A    between atoms: _396  and  _398
REMARK  165  A    between atoms: _398  and  _399
REMARK  166  A    between atoms: _398  and  _401
REMARK  167  A    between atoms: _401  and  _402
REMARK  168  A    between atoms: _407  and  _409
REMARK  169  A    between atoms: _409  and  _410
REMARK  170  A    between atoms: _412  and  _414
REMARK  171  A    between atoms: _414  and  _415
REMARK  172  A    between atoms: _414  and  _417
REMARK  173  A    between atoms: _417  and  _418
REMARK  174  A    between atoms: _421  and  _423
REMARK  175  A    between atoms: _423  and  _424
REMARK  176  A    between atoms: _423  and  _426
REMARK  177  A    between atoms: _426  and  _427
REMARK  178  A    between atoms: _432  and  _433
REMARK  179  A    between atoms: _435  and  _437
REMARK  180  A    between atoms: _437  and  _438
REMARK  181  A    between atoms: _437  and  _440
REMARK  182  A    between atoms: _440  and  _441
REMARK  183  A    between atoms: _444  and  _446
REMARK  184  A    between atoms: _446  and  _447
REMARK  185  A    between atoms: _446  and  _449
REMARK  186  A    between atoms: _449  and  _450
REMARK  187  A    between atoms: _453  and  _455
REMARK  188  A    between atoms: _455  and  _456
REMARK  189  A    between atoms: _455  and  _458
REMARK  190  A    between atoms: _458  and  _459
REMARK  191  A    between atoms: _462  and  _464
REMARK  192  A    between atoms: _464  and  _465
REMARK  193  A    between atoms: _464  and  _467
REMARK  194  A    between atoms: _467  and  _468
REMARK  195  A    between atoms: _473  and  _475
REMARK  196  A    between atoms: _475  and  _476
REMARK  197  A    between atoms: _475  and  _478
REMARK  198  A    between atoms: _478  and  _479
REMARK  199  A    between atoms: _479  and  _480
REMARK  200  A    between atoms: _480  and  _481
REMARK  201  A    between atoms: _490  and  _492
REMARK  202  A    between atoms: _492  and  _493
REMARK  203  A    between atoms: _492  and  _495
REMARK  204  A    between atoms: _495  and  _496
REMARK  205  A    between atoms: _499  and  _501
REMARK  206  A    between atoms: _501  and  _502
REMARK  207  A    between atoms: _501  and  _504
REMARK  208  A    between atoms: _504  and  _505
REMARK  209  A    between atoms: _508  and  _510
REMARK  210  A    between atoms: _510  and  _511
REMARK  211  A    between atoms: _510  and  _513
REMARK  212  A    between atoms: _513  and  _514
REMARK  213  A    between atoms: _516  and  _518
REMARK  214  A    between atoms: _518  and  _519
REMARK  215  A    between atoms: _518  and  _521
REMARK  216  A    between atoms: _521  and  _522
REMARK  217  A    between atoms: _527  and  _529
REMARK  218  A    between atoms: _529  and  _530
REMARK  219  A    between atoms: _533  and  _535
REMARK  220  A    between atoms: _535  and  _536
REMARK  221  A    between atoms: _535  and  _538
REMARK  222  A    between atoms: _538  and  _539
REMARK  223  A    between atoms: _539  and  _540
REMARK  224  A    between atoms: _540  and  _541
REMARK  225  A    between atoms: _541  and  _542
REMARK  226  A    between atoms: _546  and  _548
REMARK  227  A    between atoms: _548  and  _549
REMARK  228  A    between atoms: _548  and  _551
REMARK  229  A    between atoms: _551  and  _552
REMARK  230  A    between atoms: _555  and  _557
REMARK  231  A    between atoms: _557  and  _558
REMARK  232  A    between atoms: _557  and  _560
REMARK  233  A    between atoms: _560  and  _561
REMARK  234  A    between atoms: _564  and  _566
REMARK  235  A    between atoms: _566  and  _567
REMARK  236  A    between atoms: _566  and  _569
REMARK  237  A    between atoms: _569  and  _570
REMARK  238  A    between atoms: _573  and  _575
REMARK  239  A    between atoms: _575  and  _576
REMARK  240  A    between atoms: _575  and  _578
REMARK  241  A    between atoms: _578  and  _579
REMARK  242  A    between atoms: _585  and  _587
REMARK  243  A    between atoms: _587  and  _588
REMARK  244  A    between atoms: _590  and  _592
REMARK  245  A    between atoms: _592  and  _593
REMARK  246  A    between atoms: _592  and  _595
REMARK  247  A    between atoms: _595  and  _596
REMARK                            x       y       z     vdW  Elec       q    Type
REMARK                         _______ _______ _______ _____ _____    ______ ____
ROOT
ATOM      1  CA  ALA A   1       3.968  -3.945  22.962  0.00  0.00    +0.133 C 
ATOM      2  CB  ALA A   1       2.602  -4.078  22.365  0.00  0.00    +0.027 C 
ENDROOT
BRANCH   1   3
ATOM      3  N   ALA A   1       4.784  -2.997  22.174  0.00  0.00    -0.239 NA
ATOM      4  H   ALA A   1       4.698  -2.977  21.138  0.00  0.00    +0.142 HD
ENDBRANCH   1   3
BRANCH   1   5
ATOM      5  C   ALA A   1       4.632  -5.330  23.110  0.00  0.00    +0.224 C 
ATOM      6  O   ALA A   1       5.211  -5.853  22.171  0.00  0.00    -0.287 OA
ENDBRANCH   1   5
TORSDOF 2
REMARK  Name = ../refined-set-2016/2bak/2bak_pocket.pdb
REMARK  247 active torsions:
REMARK  status: ('A' for Active; 'I' for Inactive)
REMARK    1  A    between atoms: _2  and  _3
REMARK    2  A    between atoms: _8  and  _10
REMARK    3  A    between atoms: _10  and  _11
REMARK    4  A    between atoms: _10  and  _13
REMARK    5  A    between atoms: _16  and  _18
REMARK    6  A    between atoms: _18  and  _19
REMARK    7  A    between atoms: _21  and  _23
REMARK    8  A    between atoms: _23  and  _24
REMARK    9  A    between atoms: _23  and  _26
REMARK   10  A    between atoms: _26  and  _27
REMARK   11  A    between atoms: _29  and  _31
REMARK   12  A    between atoms: _31  and  _32
REMARK   13  A    between atoms: _34  and  _36
REMARK   14  A    between atoms: _36  and  _37
REMARK   15  A    between atoms: _36  and  _39
REMARK   16  A    between atoms: _39  and  _40
REMARK   17  A    between atoms: _45  and  _46
REMARK   18  A    between atoms: _48  and  _50
REMARK   19  A    between atoms: _50  and  _51
REMARK   20  A    between atoms: _53  and  _55
REMARK   21  A    between atoms: _55  and  _56
REMARK   22  A    between atoms: _55  and  _58
REMARK   23  A    between atoms: _58  and  _59
REMARK   24  A    between atoms: _61  and  _63
REMARK   25  A    between atoms: _63  and  _64
REMARK   26  A    between atoms: _63  and  _66
REMARK   27  A    between atoms: _69  and  _71
REMARK   28  A    between atoms: _71  and  _72
REMARK   29  A    between atoms: _71  and  _74
REMARK   30  A    between atoms: _76  and  _78
REMARK   31  A    between atoms: _78  and  _79
REMARK   32  A    between atoms: _82  and  _84
REMARK   33  A    between atoms: _84  and  _85
REMARK   34  A    between atoms: _84  and  _87
REMARK   35  A    between atoms: _87  and  _88
REMARK   36  A    between atoms: _88  and  _89
REMARK   37  A    between atoms: _89  and  _90
REMARK   38  A    between atoms: _99  and  _101
REMARK   39  A    between atoms: _101  and  _102
REMARK   40  A    between atoms: _101  and  _104
REMARK   41  A    between atoms: _107  and  _109
REMARK   42  A    between atoms: _109  and  _110
REMARK   43  A    between atoms: _113  and  _115
REMARK   44  A    between atoms: _115  and  _116
REMARK   45  A    between atoms: _115  and  _118
REMARK   46  A    between atoms: _121  and  _123
REMARK   47  A    between atoms: _123  and  _124
REMARK   48  A    between atoms: _123  and  _126
REMARK   49  A    between atoms: _126  and  _127
REMARK   50  A    between atoms: _127  and  _128
REMARK   51  A    between atoms: _128  and  _129
REMARK   52  A    between atoms: _129  and  _130
REMARK   53  A    between atoms: _134  and  _136
REMARK   54  A    between atoms: _136  and  _137
REMARK   55  A    between atoms: _136  and  _139
REMARK   56  A    between atoms: _139  and  _140
REMARK   57  A    between atoms: _140  and  _141
REMARK   58  A    between atoms: _141  and  _142
REMARK   59  A    between atoms: _142  and  _143
REMARK   60  A    between atoms: _147  and  _149
REMARK   61  A    between atoms: _149  and  _150
REMARK   62  A    between atoms: _149  and  _152
REMARK   63  A    between atoms: _152  and  _153
REMARK   64  A    between atoms: _156  and  _158
REMARK   65  A    between atoms: _158  and  _159
REMARK   66  A    between atoms: _158  and  _161
REMARK   67  A    between atoms: _161  and  _162
REMARK   68  A    between atoms: _162  and  _163
REMARK   69  A    between atoms: _163  and  _164
REMARK   70  A    between atoms: _173  and  _175
REMARK   71  A    between atoms: _175  and  _176
REMARK   72  A    between atoms: _175  and  _178
REMARK   73  A    between atoms: _178  and  _179
REMARK   74  A    between atoms: _179  and  _180
REMARK   75  A    between atoms: _180  and  _181
REMARK   76  A    between atoms: _190  and  _192
REMARK   77  A    between atoms: _192  and  _193
REMARK   78  A    between atoms: _192  and  _195
REMARK   79  A    between atoms: _195  and  _196
REMARK   80  A    between atoms: _196  and  _197
REMARK   81  A    between atoms: _200  and  _202
REMARK   82  A    between atoms: _202  and  _203
REMARK   83  A    between atoms: _202  and  _205
REMARK   84  A    between atoms: _205  and  _206
REMARK   85  A    between atoms: _209  and  _211
REMARK   86  A    between atoms: _211  and  _212
REMARK   87  A    between atoms: _211  and  _214
REMARK   88  A    between atoms: _214  and  _215
REMARK   89  A    between atoms: _218  and  _220
REMARK   90  A    between atoms: _220  and  _221
REMARK   91  A    between atoms: _220  and  _223
REMARK   92  A    between atoms: _223  and  _224
REMARK   93  A    between atoms: _227  and  _229
REMARK   94  A    between atoms: _229  and  _230
REMARK   95  A    between atoms: _229  and  _232
REMARK   96  A    between atoms: _232  and  _233
REMARK   97  A    between atoms: _233  and  _234
REMARK   98  A    between atoms: _236  and  _238
REMARK   99  A    between atoms: _238  and  _239
REMARK  100  A    between atoms: _238  and  _241
REMARK  101  A    between atoms: _241  and  _242
REMARK  102  A    between atoms: _247  and  _249
REMARK  103  A    between atoms: _249  and  _250
REMARK  104  A    between atoms: _249  and  _252
REMARK  105  A    between atoms: _255  and  _257
REMARK  106  A    between atoms: _257  and  _258
REMARK  107  A    between atoms: _257  and  _260
REMARK  108  A    between atoms: _260  and  _261
REMARK  109  A    between atoms: _264  and  _266
REMARK  110  A    between atoms: _266  and  _267
REMARK  111  A    between atoms: _269  and  _271
REMARK  112  A    between atoms: _271  and  _272
REMARK  113  A    between atoms: _271  and  _274
REMARK  114  A    between atoms: _274  and  _275
REMARK  115  A    between atoms: _278  and  _280
REMARK  116  A    between atoms: _280  and  _281
REMARK  117  A    between atoms: _280  and  _283
REMARK  118  A    between atoms: _283  and  _284
REMARK  119  A    between atoms: _287  and  _289
REMARK  120  A    between atoms: _289  and  _290
REMARK  121  A    between atoms: _289  and  _292
REMARK  122  A    between atoms: _292  and  _293
REMARK  123  A    between atoms: _296  and  _298
REMARK  124  A    between atoms: _298  and  _299
REMARK  125  A    between atoms: _298  and  _301
REMARK  126  A    between atoms: _301  and  _302
REMARK  127  A    between atoms: _307  and  _308
REMARK  128  A    between atoms: _310  and  _312
REMARK  129  A    between atoms: _312  and  _313
REMARK  130  A    between atoms: _312  and  _315
REMARK  131  A    between atoms: _315  and  _316
REMARK  132  A    between atoms: _319  and  _321
REMARK  133  A    between atoms: _321  and  _322
REMARK  134  A    between atoms: _321  and  _324
REMARK  135  A    between atoms: _327  and  _329
REMARK  136  A    between atoms: _329  and  _330
REMARK  137  A    between atoms: _329  and  _332
REMARK  138  A    between atoms: _332  and  _333
REMARK  139  A    between atoms: _336  and  _338
REMARK  140  A    between atoms: _338  and  _339
REMARK  141  A    between atoms: _338  and  _341
REMARK  142  A    between atoms: _341  and  _342
REMARK  143  A    between atoms: _347  and  _349
REMARK  144  A    between atoms: _349  and  _350
REMARK  145  A    between atoms: _349  and  _352
REMARK  146  A    between atoms: _352  and  _353
REMARK  147  A    between atoms: _356  and  _358
REMARK  148  A    between atoms: _358  and  _359
REMARK  149  A    between atoms: _358  and  _361
REMARK  150  A    between atoms: _361  and  _362
REMARK  151  A    between atoms: _362  and  _363
REMARK  152  A    between atoms: _365  and  _367
REMARK  153  A    between atoms: _367  and  _368
REMARK  154  A    between atoms: _370  and  _372
REMARK  155  A    between atoms: _372  and  _373
REMARK  156  A    between atoms: _376  and  _378
REMARK  157  A    between atoms: _378  and  _379
REMARK  158  A    between atoms: _378  and  _381
REMARK  159  A    between atoms: _381  and  _382
REMARK  160  A    between atoms: _385  and  _387
REMARK  161  A    between atoms: _387  and  _388
REMARK  162  A    between atoms: _387  and  _390
REMARK  163  A    between atoms: _390  and  _391
REMARK  164  A    between atoms: _396  and  _398
REMARK  165  A    between atoms: _398  and  _399
REMARK  166  A    between atoms: _398  and  _401
REMARK  167  A    between atoms: _401  and  _402
REMARK  168  A    between atoms: _407  and  _409
REMARK  169  A    between atoms: _409  and  _410
REMARK  170  A    between atoms: _412  and  _414
REMARK  171  A    between atoms: _414  and  _415
REMARK  172  A    between atoms: _414  and  _417
REMARK  173  A    between atoms: _417  and  _418
REMARK  174  A    between atoms: _421  and  _423
REMARK  175  A    between atoms: _423  and  _424
REMARK  176  A    between atoms: _423  and  _426
REMARK  177  A    between atoms: _426  and  _427
REMARK  178  A    between atoms: _432  and  _433
REMARK  179  A    between atoms: _435  and  _437
REMARK  180  A    between atoms: _437  and  _438
REMARK  181  A    between atoms: _437  and  _440
REMARK  182  A    between atoms: _440  and  _441
REMARK  183  A    between atoms: _444  and  _446
REMARK  184  A    between atoms: _446  and  _447
REMARK  185  A    between atoms: _446  and  _449
REMARK  186  A    between atoms: _449  and  _450
REMARK  187  A    between atoms: _453  and  _455
REMARK  188  A    between atoms: _455  and  _456
REMARK  189  A    between atoms: _455  and  _458
REMARK  190  A    between atoms: _458  and  _459
REMARK  191  A    between atoms: _462  and  _464
REMARK  192  A    between atoms: _464  and  _465
REMARK  193  A    between atoms: _464  and  _467
REMARK  194  A    between atoms: _467  and  _468
REMARK  195  A    between atoms: _473  and  _475
REMARK  196  A    between atoms: _475  and  _476
REMARK  197  A    between atoms: _475  and  _478
REMARK  198  A    between atoms: _478  and  _479
REMARK  199  A    between atoms: _479  and  _480
REMARK  200  A    between atoms: _480  and  _481
REMARK  201  A    between atoms: _490  and  _492
REMARK  202  A    between atoms: _492  and  _493
REMARK  203  A    between atoms: _492  and  _495
REMARK  204  A    between atoms: _495  and  _496
REMARK  205  A    between atoms: _499  and  _501
REMARK  206  A    between atoms: _501  and  _502
REMARK  207  A    between atoms: _501  and  _504
REMARK  208  A    between atoms: _504  and  _505
REMARK  209  A    between atoms: _508  and  _510
REMARK  210  A    between atoms: _510  and  _511
REMARK  211  A    between atoms: _510  and  _513
REMARK  212  A    between atoms: _513  and  _514
REMARK  213  A    between atoms: _516  and  _518
REMARK  214  A    between atoms: _518  and  _519
REMARK  215  A    between atoms: _518  and  _521
REMARK  216  A    between atoms: _521  and  _522
REMARK  217  A    between atoms: _527  and  _529
REMARK  218  A    between atoms: _529  and  _530
REMARK  219  A    between atoms: _533  and  _535
REMARK  220  A    between atoms: _535  and  _536
REMARK  221  A    between atoms: _535  and  _538
REMARK  222  A    between atoms: _538  and  _539
REMARK  223  A    between atoms: _539  and  _540
REMARK  224  A    between atoms: _540  and  _541
REMARK  225  A    between atoms: _541  and  _542
REMARK  226  A    between atoms: _546  and  _548
REMARK  227  A    between atoms: _548  and  _549
REMARK  228  A    between atoms: _548  and  _551
REMARK  229  A    between atoms: _551  and  _552
REMARK  230  A    between atoms: _555  and  _557
REMARK  231  A    between atoms: _557  and  _558
REMARK  232  A    between atoms: _557  and  _560
REMARK  233  A    between atoms: _560  and  _561
REMARK  234  A    between atoms: _564  and  _566
REMARK  235  A    between atoms: _566  and  _567
REMARK  236  A    between atoms: _566  and  _569
REMARK  237  A    between atoms: _569  and  _570
REMARK  238  A    between atoms: _573  and  _575
REMARK  239  A    between atoms: _575  and  _576
REMARK  240  A    between atoms: _575  and  _578
REMARK  241  A    between atoms: _578  and  _579
REMARK  242  A    between atoms: _585  and  _587
REMARK  243  A    between atoms: _587  and  _588
REMARK  244  A    between atoms: _590  and  _592
REMARK  245  A    between atoms: _592  and  _593
REMARK  246  A    between atoms: _592  and  _595
REMARK  247  A    between atoms: _595  and  _596
REMARK                            x       y       z     vdW  Elec       q    Type
REMARK                         _______ _______ _______ _____ _____    ______ ____
ROOT
ATOM      1  CA  LEU A   3       2.840   0.604  17.368  0.00  0.00    +0.149 C 
ENDROOT
BRANCH   1   2
ATOM      2  C   LEU A   3       3.080   2.097  17.703  0.00  0.00    +0.241 C 
ATOM      3  O   LEU A   3       4.215   2.556  17.804  0.00  0.00    -0.273 OA
ATOM      4  N   ASP A   4       2.010   2.861  17.769  0.00  0.00    -0.297 N 
ATOM      5  H   ASP A   4       1.071   2.428  17.662  0.00  0.00    +0.150 HD
BRANCH   4   6
ATOM      6  CA  ASP A   4       2.109   4.311  17.990  0.00  0.00    +0.160 C 
BRANCH   6   7
ATOM      7  C   ASP A   4       0.897   4.757  18.769  0.00  0.00    +0.241 C 
ATOM      8  N   PHE A   5       1.044   4.722  20.104  0.00  0.00    -0.297 N 
ATOM      9  H   PHE A   5       1.915   4.307  20.493  0.00  0.00    +0.150 HD
ATOM     10  O   ASP A   4      -0.140   5.089  18.171  0.00  0.00    -0.273 OA
BRANCH   8  11
ATOM     11  CA  PHE A   5       0.037   5.240  21.046  0.00  0.00    +0.153 C 
BRANCH  11  12
ATOM     12  C   PHE A   5      -0.033   6.769  21.039  0.00  0.00    +0.241 C 
ATOM     13  O   PHE A   5      -0.952   7.362  21.610  0.00  0.00    -0.273 OA
ATOM     14  N   GLY A   6       0.932   7.405  20.378  0.00  0.00    -0.296 N 
ATOM     15  H   GLY A   6       1.762   6.867  20.059  0.00  0.00    +0.150 HD
BRANCH  14  16
ATOM     16  CA  GLY A   6       0.862   8.830  20.088  0.00  0.00    +0.163 C 
BRANCH  16  17
ATOM     17  C   GLY A   6       1.124   9.728  21.277  0.00  0.00    +0.229 C 
ATOM     18  O   GLY A   6       1.062  10.962  21.147  0.00  0.00    -0.286 OA
ENDBRANCH  16  17
ENDBRANCH  14  16
ENDBRANCH  11  12
BRANCH  11  19
ATOM     19  CB  PHE A   5       0.307   4.745  22.466  0.00  0.00    +0.055 C 
BRANCH  19  20
ATOM     20  CG  PHE A   5       0.318   3.257  22.593  0.00  0.00    -0.020 A 
ATOM     21  CD2 PHE A   5       1.483   2.593  22.889  0.00  0.00    -0.004 A 
ATOM     22  CE2 PHE A   5       1.517   1.207  23.002  0.00  0.00    -0.000 A 
ATOM     23  CZ  PHE A   5       0.361   0.477  22.832  0.00  0.00    -0.000 A 
ATOM     24  CE1 PHE A   5      -0.820   1.128  22.538  0.00  0.00    -0.000 A 
ATOM     25  CD1 PHE A   5      -0.837   2.520  22.408  0.00  0.00    -0.004 A 
ENDBRANCH  19  20
ENDBRANCH  11  19
ENDBRANCH   8  11
ENDBRANCH   6   7
BRANCH   6  26
ATOM     26  CB  ASP A   4       2.252   5.122  16.691  0.00  0.00    +0.143 C 
BRANCH  26  27
ATOM     27  CG  ASP A   4       2.864   6.501  16.945  0.00  0.00    +0.367 C 
ATOM     28  OD2 ASP A   4       2.503   7.087  18.005  0.00  0.00    -0.246 OA
ATOM     29  OD1 ASP A   4       3.689   7.090  16.186  0.00  0.00    -0.246 OA
ENDBRANCH  26  27
ENDBRANCH   6  26
ENDBRANCH   4   6
ENDBRANCH   1   2
BRANCH   1  31
ATOM     30  C   ILE A   2       4.270  -1.219  16.717  0.00  0.00    +0.241 C 
ATOM     31  N   LEU A   3       4.015  -0.215  17.540  0.00  0.00    -0.297 N 
ATOM     32  H   LEU A   3       4.671  -0.013  18.322  0.00  0.00    +0.150 HD
ATOM     33  O   ILE A   2       3.522  -1.543  15.822  0.00  0.00    -0.273 OA
BRANCH  30  34
ATOM     34  CA  ILE A   2       5.581  -1.935  16.917  0.00  0.00    +0.148 C 
BRANCH  34  37
ATOM     35  C   LYS A   1       5.041  -3.945  18.159  0.00  0.00    +0.238 C 
ATOM     36  O   LYS A   1       4.984  -3.327  19.205  0.00  0.00    -0.274 OA
ATOM     37  N   ILE A   2       5.356  -3.360  17.012  0.00  0.00    -0.297 N 
ATOM     38  H   ILE A   2       5.444  -3.943  16.155  0.00  0.00    +0.150 HD
BRANCH  35  39
ATOM     39  CA  LYS A   1       4.724  -5.444  18.104  0.00  0.00    +0.145 C 
BRANCH  39  40
ATOM     40  N   LYS A   1       5.320  -6.156  19.230  0.00  0.00    -0.238 NA
ATOM     41  H   LYS A   1       5.208  -5.760  20.185  0.00  0.00    +0.142 HD
ENDBRANCH  39  40
BRANCH  39  42
ATOM     42  CB  LYS A   1       3.187  -5.659  18.090  0.00  0.00    +0.026 C 
BRANCH  42  43
ATOM     43  CG  LYS A   1       2.724  -7.023  17.537  0.00  0.00    -0.000 C 
BRANCH  43  44
ATOM     44  CD  LYS A   1       1.223  -7.030  17.260  0.00  0.00    -0.024 C 
BRANCH  44  45
ATOM     45  CE  LYS A   1       0.675  -8.467  17.198  0.00  0.00    -0.086 C 
BRANCH  45  46
ATOM     46  NZ  LYS A   1       1.223  -9.290  16.081  0.00  0.00    +0.380 N 
ATOM     47  HZ1 LYS A   1       2.256  -9.363  16.180  0.00  0.00    -0.089 HD
ATOM     48  HZ2 LYS A   1       0.802 -10.240  16.113  0.00  0.00    -0.089 HD
ATOM     49  HZ3 LYS A   1       0.992  -8.838  15.173  0.00  0.00    -0.089 HD
ENDBRANCH  45  46
ENDBRANCH  44  45
ENDBRANCH  43  44
ENDBRANCH  42  43
ENDBRANCH  39  42
ENDBRANCH  35  39
ENDBRANCH  34  37
BRANCH  34  50
ATOM     50  CB  ILE A   2       6.517  -1.597  15.757  0.00  0.00    +0.027 C 
ATOM     51  CG2 ILE A   2       6.617  -0.086  15.608  0.00  0.00    +0.002 C 
BRANCH  50  52
ATOM     52  CG1 ILE A   2       7.897  -2.203  16.016  0.00  0.00    +0.002 C 
ATOM     53  CD1 ILE A   2       8.825  -2.109  14.881  0.00  0.00    +0.000 C 
ENDBRANCH  50  52
ENDBRANCH  34  50
ENDBRANCH  30  34
ENDBRANCH   1  31
BRANCH   1  54
ATOM     54  CB  LEU A   3       1.611  -0.045  18.056  0.00  0.00    +0.029 C 
BRANCH  54  55
ATOM     55  CG  LEU A   3       1.391  -0.329  19.535  0.00  0.00    +0.002 C 
ATOM     56  CD2 LEU A   3       1.975  -1.657  19.967  0.00  0.00    +0.000 C 
ATOM     57  CD1 LEU A   3      -0.119  -0.425  19.805  0.00  0.00    +0.000 C 
ENDBRANCH  54  55
ENDBRANCH   1  54
TORSDOF 25
REMARK  Name = ../refined-set-2016/2bak/2bak_pocket.pdb
REMARK  247 active torsions:
REMARK  status: ('A' for Active; 'I' for Inactive)
REMARK    1  A    between atoms: _2  and  _3
REMARK    2  A    between atoms: _8  and  _10
REMARK    3  A    between atoms: _10  and  _11
REMARK    4  A    between atoms: _10  and  _13
REMARK    5  A    between atoms: _16  and  _18
REMARK    6  A    between atoms: _18  and  _19
REMARK    7  A    between atoms: _21  and  _23
REMARK    8  A    between atoms: _23  and  _24
REMARK    9  A    between atoms: _23  and  _26
REMARK   10  A    between atoms: _26  and  _27
REMARK   11  A    between atoms: _29  and  _31
REMARK   12  A    between atoms: _31  and  _32
REMARK   13  A    between atoms: _34  and  _36
REMARK   14  A    between atoms: _36  and  _37
REMARK   15  A    between atoms: _36  and  _39
REMARK   16  A    between atoms: _39  and  _40
REMARK   17  A    between atoms: _45  and  _46
REMARK   18  A    between atoms: _48  and  _50
REMARK   19  A    between atoms: _50  and  _51
REMARK   20  A    between atoms: _53  and  _55
REMARK   21  A    between atoms: _55  and  _56
REMARK   22  A    between atoms: _55  and  _58
REMARK   23  A    between atoms: _58  and  _59
REMARK   24  A    between atoms: _61  and  _63
REMARK   25  A    between atoms: _63  and  _64
REMARK   26  A    between atoms: _63  and  _66
REMARK   27  A    between atoms: _69  and  _71
REMARK   28  A    between atoms: _71  and  _72
REMARK   29  A    between atoms: _71  and  _74
REMARK   30  A    between atoms: _76  and  _78
REMARK   31  A    between atoms: _78  and  _79
REMARK   32  A    between atoms: _82  and  _84
REMARK   33  A    between atoms: _84  and  _85
REMARK   34  A    between atoms: _84  and  _87
REMARK   35  A    between atoms: _87  and  _88
REMARK   36  A    between atoms: _88  and  _89
REMARK   37  A    between atoms: _89  and  _90
REMARK   38  A    between atoms: _99  and  _101
REMARK   39  A    between atoms: _101  and  _102
REMARK   40  A    between atoms: _101  and  _104
REMARK   41  A    between atoms: _107  and  _109
REMARK   42  A    between atoms: _109  and  _110
REMARK   43  A    between atoms: _113  and  _115
REMARK   44  A    between atoms: _115  and  _116
REMARK   45  A    between atoms: _115  and  _118
REMARK   46  A    between atoms: _121  and  _123
REMARK   47  A    between atoms: _123  and  _124
REMARK   48  A    between atoms: _123  and  _126
REMARK   49  A    between atoms: _126  and  _127
REMARK   50  A    between atoms: _127  and  _128
REMARK   51  A    between atoms: _128  and  _129
REMARK   52  A    between atoms: _129  and  _130
REMARK   53  A    between atoms: _134  and  _136
REMARK   54  A    between atoms: _136  and  _137
REMARK   55  A    between atoms: _136  and  _139
REMARK   56  A    between atoms: _139  and  _140
REMARK   57  A    between atoms: _140  and  _141
REMARK   58  A    between atoms: _141  and  _142
REMARK   59  A    between atoms: _142  and  _143
REMARK   60  A    between atoms: _147  and  _149
REMARK   61  A    between atoms: _149  and  _150
REMARK   62  A    between atoms: _149  and  _152
REMARK   63  A    between atoms: _152  and  _153
REMARK   64  A    between atoms: _156  and  _158
REMARK   65  A    between atoms: _158  and  _159
REMARK   66  A    between atoms: _158  and  _161
REMARK   67  A    between atoms: _161  and  _162
REMARK   68  A    between atoms: _162  and  _163
REMARK   69  A    between atoms: _163  and  _164
REMARK   70  A    between atoms: _173  and  _175
REMARK   71  A    between atoms: _175  and  _176
REMARK   72  A    between atoms: _175  and  _178
REMARK   73  A    between atoms: _178  and  _179
REMARK   74  A    between atoms: _179  and  _180
REMARK   75  A    between atoms: _180  and  _181
REMARK   76  A    between atoms: _190  and  _192
REMARK   77  A    between atoms: _192  and  _193
REMARK   78  A    between atoms: _192  and  _195
REMARK   79  A    between atoms: _195  and  _196
REMARK   80  A    between atoms: _196  and  _197
REMARK   81  A    between atoms: _200  and  _202
REMARK   82  A    between atoms: _202  and  _203
REMARK   83  A    between atoms: _202  and  _205
REMARK   84  A    between atoms: _205  and  _206
REMARK   85  A    between atoms: _209  and  _211
REMARK   86  A    between atoms: _211  and  _212
REMARK   87  A    between atoms: _211  and  _214
REMARK   88  A    between atoms: _214  and  _215
REMARK   89  A    between atoms: _218  and  _220
REMARK   90  A    between atoms: _220  and  _221
REMARK   91  A    between atoms: _220  and  _223
REMARK   92  A    between atoms: _223  and  _224
REMARK   93  A    between atoms: _227  and  _229
REMARK   94  A    between atoms: _229  and  _230
REMARK   95  A    between atoms: _229  and  _232
REMARK   96  A    between atoms: _232  and  _233
REMARK   97  A    between atoms: _233  and  _234
REMARK   98  A    between atoms: _236  and  _238
REMARK   99  A    between atoms: _238  and  _239
REMARK  100  A    between atoms: _238  and  _241
REMARK  101  A    between atoms: _241  and  _242
REMARK  102  A    between atoms: _247  and  _249
REMARK  103  A    between atoms: _249  and  _250
REMARK  104  A    between atoms: _249  and  _252
REMARK  105  A    between atoms: _255  and  _257
REMARK  106  A    between atoms: _257  and  _258
REMARK  107  A    between atoms: _257  and  _260
REMARK  108  A    between atoms: _260  and  _261
REMARK  109  A    between atoms: _264  and  _266
REMARK  110  A    between atoms: _266  and  _267
REMARK  111  A    between atoms: _269  and  _271
REMARK  112  A    between atoms: _271  and  _272
REMARK  113  A    between atoms: _271  and  _274
REMARK  114  A    between atoms: _274  and  _275
REMARK  115  A    between atoms: _278  and  _280
REMARK  116  A    between atoms: _280  and  _281
REMARK  117  A    between atoms: _280  and  _283
REMARK  118  A    between atoms: _283  and  _284
REMARK  119  A    between atoms: _287  and  _289
REMARK  120  A    between atoms: _289  and  _290
REMARK  121  A    between atoms: _289  and  _292
REMARK  122  A    between atoms: _292  and  _293
REMARK  123  A    between atoms: _296  and  _298
REMARK  124  A    between atoms: _298  and  _299
REMARK  125  A    between atoms: _298  and  _301
REMARK  126  A    between atoms: _301  and  _302
REMARK  127  A    between atoms: _307  and  _308
REMARK  128  A    between atoms: _310  and  _312
REMARK  129  A    between atoms: _312  and  _313
REMARK  130  A    between atoms: _312  and  _315
REMARK  131  A    between atoms: _315  and  _316
REMARK  132  A    between atoms: _319  and  _321
REMARK  133  A    between atoms: _321  and  _322
REMARK  134  A    between atoms: _321  and  _324
REMARK  135  A    between atoms: _327  and  _329
REMARK  136  A    between atoms: _329  and  _330
REMARK  137  A    between atoms: _329  and  _332
REMARK  138  A    between atoms: _332  and  _333
REMARK  139  A    between atoms: _336  and  _338
REMARK  140  A    between atoms: _338  and  _339
REMARK  141  A    between atoms: _338  and  _341
REMARK  142  A    between atoms: _341  and  _342
REMARK  143  A    between atoms: _347  and  _349
REMARK  144  A    between atoms: _349  and  _350
REMARK  145  A    between atoms: _349  and  _352
REMARK  146  A    between atoms: _352  and  _353
REMARK  147  A    between atoms: _356  and  _358
REMARK  148  A    between atoms: _358  and  _359
REMARK  149  A    between atoms: _358  and  _361
REMARK  150  A    between atoms: _361  and  _362
REMARK  151  A    between atoms: _362  and  _363
REMARK  152  A    between atoms: _365  and  _367
REMARK  153  A    between atoms: _367  and  _368
REMARK  154  A    between atoms: _370  and  _372
REMARK  155  A    between atoms: _372  and  _373
REMARK  156  A    between atoms: _376  and  _378
REMARK  157  A    between atoms: _378  and  _379
REMARK  158  A    between atoms: _378  and  _381
REMARK  159  A    between atoms: _381  and  _382
REMARK  160  A    between atoms: _385  and  _387
REMARK  161  A    between atoms: _387  and  _388
REMARK  162  A    between atoms: _387  and  _390
REMARK  163  A    between atoms: _390  and  _391
REMARK  164  A    between atoms: _396  and  _398
REMARK  165  A    between atoms: _398  and  _399
REMARK  166  A    between atoms: _398  and  _401
REMARK  167  A    between atoms: _401  and  _402
REMARK  168  A    between atoms: _407  and  _409
REMARK  169  A    between atoms: _409  and  _410
REMARK  170  A    between atoms: _412  and  _414
REMARK  171  A    between atoms: _414  and  _415
REMARK  172  A    between atoms: _414  and  _417
REMARK  173  A    between atoms: _417  and  _418
REMARK  174  A    between atoms: _421  and  _423
REMARK  175  A    between atoms: _423  and  _424
REMARK  176  A    between atoms: _423  and  _426
REMARK  177  A    between atoms: _426  and  _427
REMARK  178  A    between atoms: _432  and  _433
REMARK  179  A    between atoms: _435  and  _437
REMARK  180  A    between atoms: _437  and  _438
REMARK  181  A    between atoms: _437  and  _440
REMARK  182  A    between atoms: _440  and  _441
REMARK  183  A    between atoms: _444  and  _446
REMARK  184  A    between atoms: _446  and  _447
REMARK  185  A    between atoms: _446  and  _449
REMARK  186  A    between atoms: _449  and  _450
REMARK  187  A    between atoms: _453  and  _455
REMARK  188  A    between atoms: _455  and  _456
REMARK  189  A    between atoms: _455  and  _458
REMARK  190  A    between atoms: _458  and  _459
REMARK  191  A    between atoms: _462  and  _464
REMARK  192  A    between atoms: _464  and  _465
REMARK  193  A    between atoms: _464  and  _467
REMARK  194  A    between atoms: _467  and  _468
REMARK  195  A    between atoms: _473  and  _475
REMARK  196  A    between atoms: _475  and  _476
REMARK  197  A    between atoms: _475  and  _478
REMARK  198  A    between atoms: _478  and  _479
REMARK  199  A    between atoms: _479  and  _480
REMARK  200  A    between atoms: _480  and  _481
REMARK  201  A    between atoms: _490  and  _492
REMARK  202  A    between atoms: _492  and  _493
REMARK  203  A    between atoms: _492  and  _495
REMARK  204  A    between atoms: _495  and  _496
REMARK  205  A    between atoms: _499  and  _501
REMARK  206  A    between atoms: _501  and  _502
REMARK  207  A    between atoms: _501  and  _504
REMARK  208  A    between atoms: _504  and  _505
REMARK  209  A    between atoms: _508  and  _510
REMARK  210  A    between atoms: _510  and  _511
REMARK  211  A    between atoms: _510  and  _513
REMARK  212  A    between atoms: _513  and  _514
REMARK  213  A    between atoms: _516  and  _518
REMARK  214  A    between atoms: _518  and  _519
REMARK  215  A    between atoms: _518  and  _521
REMARK  216  A    between atoms: _521  and  _522
REMARK  217  A    between atoms: _527  and  _529
REMARK  218  A    between atoms: _529  and  _530
REMARK  219  A    between atoms: _533  and  _535
REMARK  220  A    between atoms: _535  and  _536
REMARK  221  A    between atoms: _535  and  _538
REMARK  222  A    between atoms: _538  and  _539
REMARK  223  A    between atoms: _539  and  _540
REMARK  224  A    between atoms: _540  and  _541
REMARK  225  A    between atoms: _541  and  _542
REMARK  226  A    between atoms: _546  and  _548
REMARK  227  A    between atoms: _548  and  _549
REMARK  228  A    between atoms: _548  and  _551
REMARK  229  A    between atoms: _551  and  _552
REMARK  230  A    between atoms: _555  and  _557
REMARK  231  A    between atoms: _557  and  _558
REMARK  232  A    between atoms: _557  and  _560
REMARK  233  A    between atoms: _560  and  _561
REMARK  234  A    between atoms: _564  and  _566
REMARK  235  A    between atoms: _566  and  _567
REMARK  236  A    between atoms: _566  and  _569
REMARK  237  A    between atoms: _569  and  _570
REMARK  238  A    between atoms: _573  and  _575
REMARK  239  A    between atoms: _575  and  _576
REMARK  240  A    between atoms: _575  and  _578
REMARK  241  A    between atoms: _578  and  _579
REMARK  242  A    between atoms: _585  and  _587
REMARK  243  A    between atoms: _587  and  _588
REMARK  244  A    between atoms: _590  and  _592
REMARK  245  A    between atoms: _592  and  _593
REMARK  246  A    between atoms: _592  and  _595
REMARK  247  A    between atoms: _595  and  _596
REMARK                            x       y       z     vdW  Elec       q    Type
REMARK                         _______ _______ _______ _____ _____    ______ ____
ROOT
ATOM      1  CA  ASP A   1      14.903   4.757  13.850  0.00  0.00    +0.144 C 
ENDROOT
BRANCH   1   2
ATOM      2  N   ASP A   1      15.534   5.752  12.976  0.00  0.00    -0.239 NA
ATOM      3  H   ASP A   1      15.423   5.660  11.946  0.00  0.00    +0.142 HD
ENDBRANCH   1   2
BRANCH   1   4
ATOM      4  C   ASP A   1      15.951   3.784  14.368  0.00  0.00    +0.225 C 
ATOM      5  O   ASP A   1      15.813   3.255  15.454  0.00  0.00    -0.287 OA
ENDBRANCH   1   4
BRANCH   1   6
ATOM      6  CB  ASP A   1      13.867   3.937  13.098  0.00  0.00    +0.139 C 
BRANCH   6   7
ATOM      7  CG  ASP A   1      12.585   4.709  12.749  0.00  0.00    +0.367 C 
ATOM      8  OD2 ASP A   1      12.163   5.655  13.470  0.00  0.00    -0.246 OA
ATOM      9  OD1 ASP A   1      11.920   4.359  11.746  0.00  0.00    -0.246 OA
ENDBRANCH   6   7
ENDBRANCH   1   6
TORSDOF 4
REMARK  Name = ../refined-set-2016/2bak/2bak_pocket.pdb
REMARK  247 active torsions:
REMARK  status: ('A' for Active; 'I' for Inactive)
REMARK    1  A    between atoms: _2  and  _3
REMARK    2  A    between atoms: _8  and  _10
REMARK    3  A    between atoms: _10  and  _11
REMARK    4  A    between atoms: _10  and  _13
REMARK    5  A    between atoms: _16  and  _18
REMARK    6  A    between atoms: _18  and  _19
REMARK    7  A    between atoms: _21  and  _23
REMARK    8  A    between atoms: _23  and  _24
REMARK    9  A    between atoms: _23  and  _26
REMARK   10  A    between atoms: _26  and  _27
REMARK   11  A    between atoms: _29  and  _31
REMARK   12  A    between atoms: _31  and  _32
REMARK   13  A    between atoms: _34  and  _36
REMARK   14  A    between atoms: _36  and  _37
REMARK   15  A    between atoms: _36  and  _39
REMARK   16  A    between atoms: _39  and  _40
REMARK   17  A    between atoms: _45  and  _46
REMARK   18  A    between atoms: _48  and  _50
REMARK   19  A    between atoms: _50  and  _51
REMARK   20  A    between atoms: _53  and  _55
REMARK   21  A    between atoms: _55  and  _56
REMARK   22  A    between atoms: _55  and  _58
REMARK   23  A    between atoms: _58  and  _59
REMARK   24  A    between atoms: _61  and  _63
REMARK   25  A    between atoms: _63  and  _64
REMARK   26  A    between atoms: _63  and  _66
REMARK   27  A    between atoms: _69  and  _71
REMARK   28  A    between atoms: _71  and  _72
REMARK   29  A    between atoms: _71  and  _74
REMARK   30  A    between atoms: _76  and  _78
REMARK   31  A    between atoms: _78  and  _79
REMARK   32  A    between atoms: _82  and  _84
REMARK   33  A    between atoms: _84  and  _85
REMARK   34  A    between atoms: _84  and  _87
REMARK   35  A    between atoms: _87  and  _88
REMARK   36  A    between atoms: _88  and  _89
REMARK   37  A    between atoms: _89  and  _90
REMARK   38  A    between atoms: _99  and  _101
REMARK   39  A    between atoms: _101  and  _102
REMARK   40  A    between atoms: _101  and  _104
REMARK   41  A    between atoms: _107  and  _109
REMARK   42  A    between atoms: _109  and  _110
REMARK   43  A    between atoms: _113  and  _115
REMARK   44  A    between atoms: _115  and  _116
REMARK   45  A    between atoms: _115  and  _118
REMARK   46  A    between atoms: _121  and  _123
REMARK   47  A    between atoms: _123  and  _124
REMARK   48  A    between atoms: _123  and  _126
REMARK   49  A    between atoms: _126  and  _127
REMARK   50  A    between atoms: _127  and  _128
REMARK   51  A    between atoms: _128  and  _129
REMARK   52  A    between atoms: _129  and  _130
REMARK   53  A    between atoms: _134  and  _136
REMARK   54  A    between atoms: _136  and  _137
REMARK   55  A    between atoms: _136  and  _139
REMARK   56  A    between atoms: _139  and  _140
REMARK   57  A    between atoms: _140  and  _141
REMARK   58  A    between atoms: _141  and  _142
REMARK   59  A    between atoms: _142  and  _143
REMARK   60  A    between atoms: _147  and  _149
REMARK   61  A    between atoms: _149  and  _150
REMARK   62  A    between atoms: _149  and  _152
REMARK   63  A    between atoms: _152  and  _153
REMARK   64  A    between atoms: _156  and  _158
REMARK   65  A    between atoms: _158  and  _159
REMARK   66  A    between atoms: _158  and  _161
REMARK   67  A    between atoms: _161  and  _162
REMARK   68  A    between atoms: _162  and  _163
REMARK   69  A    between atoms: _163  and  _164
REMARK   70  A    between atoms: _173  and  _175
REMARK   71  A    between atoms: _175  and  _176
REMARK   72  A    between atoms: _175  and  _178
REMARK   73  A    between atoms: _178  and  _179
REMARK   74  A    between atoms: _179  and  _180
REMARK   75  A    between atoms: _180  and  _181
REMARK   76  A    between atoms: _190  and  _192
REMARK   77  A    between atoms: _192  and  _193
REMARK   78  A    between atoms: _192  and  _195
REMARK   79  A    between atoms: _195  and  _196
REMARK   80  A    between atoms: _196  and  _197
REMARK   81  A    between atoms: _200  and  _202
REMARK   82  A    between atoms: _202  and  _203
REMARK   83  A    between atoms: _202  and  _205
REMARK   84  A    between atoms: _205  and  _206
REMARK   85  A    between atoms: _209  and  _211
REMARK   86  A    between atoms: _211  and  _212
REMARK   87  A    between atoms: _211  and  _214
REMARK   88  A    between atoms: _214  and  _215
REMARK   89  A    between atoms: _218  and  _220
REMARK   90  A    between atoms: _220  and  _221
REMARK   91  A    between atoms: _220  and  _223
REMARK   92  A    between atoms: _223  and  _224
REMARK   93  A    between atoms: _227  and  _229
REMARK   94  A    between atoms: _229  and  _230
REMARK   95  A    between atoms: _229  and  _232
REMARK   96  A    between atoms: _232  and  _233
REMARK   97  A    between atoms: _233  and  _234
REMARK   98  A    between atoms: _236  and  _238
REMARK   99  A    between atoms: _238  and  _239
REMARK  100  A    between atoms: _238  and  _241
REMARK  101  A    between atoms: _241  and  _242
REMARK  102  A    between atoms: _247  and  _249
REMARK  103  A    between atoms: _249  and  _250
REMARK  104  A    between atoms: _249  and  _252
REMARK  105  A    between atoms: _255  and  _257
REMARK  106  A    between atoms: _257  and  _258
REMARK  107  A    between atoms: _257  and  _260
REMARK  108  A    between atoms: _260  and  _261
REMARK  109  A    between atoms: _264  and  _266
REMARK  110  A    between atoms: _266  and  _267
REMARK  111  A    between atoms: _269  and  _271
REMARK  112  A    between atoms: _271  and  _272
REMARK  113  A    between atoms: _271  and  _274
REMARK  114  A    between atoms: _274  and  _275
REMARK  115  A    between atoms: _278  and  _280
REMARK  116  A    between atoms: _280  and  _281
REMARK  117  A    between atoms: _280  and  _283
REMARK  118  A    between atoms: _283  and  _284
REMARK  119  A    between atoms: _287  and  _289
REMARK  120  A    between atoms: _289  and  _290
REMARK  121  A    between atoms: _289  and  _292
REMARK  122  A    between atoms: _292  and  _293
REMARK  123  A    between atoms: _296  and  _298
REMARK  124  A    between atoms: _298  and  _299
REMARK  125  A    between atoms: _298  and  _301
REMARK  126  A    between atoms: _301  and  _302
REMARK  127  A    between atoms: _307  and  _308
REMARK  128  A    between atoms: _310  and  _312
REMARK  129  A    between atoms: _312  and  _313
REMARK  130  A    between atoms: _312  and  _315
REMARK  131  A    between atoms: _315  and  _316
REMARK  132  A    between atoms: _319  and  _321
REMARK  133  A    between atoms: _321  and  _322
REMARK  134  A    between atoms: _321  and  _324
REMARK  135  A    between atoms: _327  and  _329
REMARK  136  A    between atoms: _329  and  _330
REMARK  137  A    between atoms: _329  and  _332
REMARK  138  A    between atoms: _332  and  _333
REMARK  139  A    between atoms: _336  and  _338
REMARK  140  A    between atoms: _338  and  _339
REMARK  141  A    between atoms: _338  and  _341
REMARK  142  A    between atoms: _341  and  _342
REMARK  143  A    between atoms: _347  and  _349
REMARK  144  A    between atoms: _349  and  _350
REMARK  145  A    between atoms: _349  and  _352
REMARK  146  A    between atoms: _352  and  _353
REMARK  147  A    between atoms: _356  and  _358
REMARK  148  A    between atoms: _358  and  _359
REMARK  149  A    between atoms: _358  and  _361
REMARK  150  A    between atoms: _361  and  _362
REMARK  151  A    between atoms: _362  and  _363
REMARK  152  A    between atoms: _365  and  _367
REMARK  153  A    between atoms: _367  and  _368
REMARK  154  A    between atoms: _370  and  _372
REMARK  155  A    between atoms: _372  and  _373
REMARK  156  A    between atoms: _376  and  _378
REMARK  157  A    between atoms: _378  and  _379
REMARK  158  A    between atoms: _378  and  _381
REMARK  159  A    between atoms: _381  and  _382
REMARK  160  A    between atoms: _385  and  _387
REMARK  161  A    between atoms: _387  and  _388
REMARK  162  A    between atoms: _387  and  _390
REMARK  163  A    between atoms: _390  and  _391
REMARK  164  A    between atoms: _396  and  _398
REMARK  165  A    between atoms: _398  and  _399
REMARK  166  A    between atoms: _398  and  _401
REMARK  167  A    between atoms: _401  and  _402
REMARK  168  A    between atoms: _407  and  _409
REMARK  169  A    between atoms: _409  and  _410
REMARK  170  A    between atoms: _412  and  _414
REMARK  171  A    between atoms: _414  and  _415
REMARK  172  A    between atoms: _414  and  _417
REMARK  173  A    between atoms: _417  and  _418
REMARK  174  A    between atoms: _421  and  _423
REMARK  175  A    between atoms: _423  and  _424
REMARK  176  A    between atoms: _423  and  _426
REMARK  177  A    between atoms: _426  and  _427
REMARK  178  A    between atoms: _432  and  _433
REMARK  179  A    between atoms: _435  and  _437
REMARK  180  A    between atoms: _437  and  _438
REMARK  181  A    between atoms: _437  and  _440
REMARK  182  A    between atoms: _440  and  _441
REMARK  183  A    between atoms: _444  and  _446
REMARK  184  A    between atoms: _446  and  _447
REMARK  185  A    between atoms: _446  and  _449
REMARK  186  A    between atoms: _449  and  _450
REMARK  187  A    between atoms: _453  and  _455
REMARK  188  A    between atoms: _455  and  _456
REMARK  189  A    between atoms: _455  and  _458
REMARK  190  A    between atoms: _458  and  _459
REMARK  191  A    between atoms: _462  and  _464
REMARK  192  A    between atoms: _464  and  _465
REMARK  193  A    between atoms: _464  and  _467
REMARK  194  A    between atoms: _467  and  _468
REMARK  195  A    between atoms: _473  and  _475
REMARK  196  A    between atoms: _475  and  _476
REMARK  197  A    between atoms: _475  and  _478
REMARK  198  A    between atoms: _478  and  _479
REMARK  199  A    between atoms: _479  and  _480
REMARK  200  A    between atoms: _480  and  _481
REMARK  201  A    between atoms: _490  and  _492
REMARK  202  A    between atoms: _492  and  _493
REMARK  203  A    between atoms: _492  and  _495
REMARK  204  A    between atoms: _495  and  _496
REMARK  205  A    between atoms: _499  and  _501
REMARK  206  A    between atoms: _501  and  _502
REMARK  207  A    between atoms: _501  and  _504
REMARK  208  A    between atoms: _504  and  _505
REMARK  209  A    between atoms: _508  and  _510
REMARK  210  A    between atoms: _510  and  _511
REMARK  211  A    between atoms: _510  and  _513
REMARK  212  A    between atoms: _513  and  _514
REMARK  213  A    between atoms: _516  and  _518
REMARK  214  A    between atoms: _518  and  _519
REMARK  215  A    between atoms: _518  and  _521
REMARK  216  A    between atoms: _521  and  _522
REMARK  217  A    between atoms: _527  and  _529
REMARK  218  A    between atoms: _529  and  _530
REMARK  219  A    between atoms: _533  and  _535
REMARK  220  A    between atoms: _535  and  _536
REMARK  221  A    between atoms: _535  and  _538
REMARK  222  A    between atoms: _538  and  _539
REMARK  223  A    between atoms: _539  and  _540
REMARK  224  A    between atoms: _540  and  _541
REMARK  225  A    between atoms: _541  and  _542
REMARK  226  A    between atoms: _546  and  _548
REMARK  227  A    between atoms: _548  and  _549
REMARK  228  A    between atoms: _548  and  _551
REMARK  229  A    between atoms: _551  and  _552
REMARK  230  A    between atoms: _555  and  _557
REMARK  231  A    between atoms: _557  and  _558
REMARK  232  A    between atoms: _557  and  _560
REMARK  233  A    between atoms: _560  and  _561
REMARK  234  A    between atoms: _564  and  _566
REMARK  235  A    between atoms: _566  and  _567
REMARK  236  A    between atoms: _566  and  _569
REMARK  237  A    between atoms: _569  and  _570
REMARK  238  A    between atoms: _573  and  _575
REMARK  239  A    between atoms: _575  and  _576
REMARK  240  A    between atoms: _575  and  _578
REMARK  241  A    between atoms: _578  and  _579
REMARK  242  A    between atoms: _585  and  _587
REMARK  243  A    between atoms: _587  and  _588
REMARK  244  A    between atoms: _590  and  _592
REMARK  245  A    between atoms: _592  and  _593
REMARK  246  A    between atoms: _592  and  _595
REMARK  247  A    between atoms: _595  and  _596
REMARK                            x       y       z     vdW  Elec       q    Type
REMARK                         _______ _______ _______ _____ _____    ______ ____
ROOT
ATOM      1  O   HOH     1       0.422  -6.156  10.731  0.00  0.00    +0.000 OA
ENDROOT
TORSDOF 0
REMARK  Name = ../refined-set-2016/2bak/2bak_pocket.pdb
REMARK  247 active torsions:
REMARK  status: ('A' for Active; 'I' for Inactive)
REMARK    1  A    between atoms: _2  and  _3
REMARK    2  A    between atoms: _8  and  _10
REMARK    3  A    between atoms: _10  and  _11
REMARK    4  A    between atoms: _10  and  _13
REMARK    5  A    between atoms: _16  and  _18
REMARK    6  A    between atoms: _18  and  _19
REMARK    7  A    between atoms: _21  and  _23
REMARK    8  A    between atoms: _23  and  _24
REMARK    9  A    between atoms: _23  and  _26
REMARK   10  A    between atoms: _26  and  _27
REMARK   11  A    between atoms: _29  and  _31
REMARK   12  A    between atoms: _31  and  _32
REMARK   13  A    between atoms: _34  and  _36
REMARK   14  A    between atoms: _36  and  _37
REMARK   15  A    between atoms: _36  and  _39
REMARK   16  A    between atoms: _39  and  _40
REMARK   17  A    between atoms: _45  and  _46
REMARK   18  A    between atoms: _48  and  _50
REMARK   19  A    between atoms: _50  and  _51
REMARK   20  A    between atoms: _53  and  _55
REMARK   21  A    between atoms: _55  and  _56
REMARK   22  A    between atoms: _55  and  _58
REMARK   23  A    between atoms: _58  and  _59
REMARK   24  A    between atoms: _61  and  _63
REMARK   25  A    between atoms: _63  and  _64
REMARK   26  A    between atoms: _63  and  _66
REMARK   27  A    between atoms: _69  and  _71
REMARK   28  A    between atoms: _71  and  _72
REMARK   29  A    between atoms: _71  and  _74
REMARK   30  A    between atoms: _76  and  _78
REMARK   31  A    between atoms: _78  and  _79
REMARK   32  A    between atoms: _82  and  _84
REMARK   33  A    between atoms: _84  and  _85
REMARK   34  A    between atoms: _84  and  _87
REMARK   35  A    between atoms: _87  and  _88
REMARK   36  A    between atoms: _88  and  _89
REMARK   37  A    between atoms: _89  and  _90
REMARK   38  A    between atoms: _99  and  _101
REMARK   39  A    between atoms: _101  and  _102
REMARK   40  A    between atoms: _101  and  _104
REMARK   41  A    between atoms: _107  and  _109
REMARK   42  A    between atoms: _109  and  _110
REMARK   43  A    between atoms: _113  and  _115
REMARK   44  A    between atoms: _115  and  _116
REMARK   45  A    between atoms: _115  and  _118
REMARK   46  A    between atoms: _121  and  _123
REMARK   47  A    between atoms: _123  and  _124
REMARK   48  A    between atoms: _123  and  _126
REMARK   49  A    between atoms: _126  and  _127
REMARK   50  A    between atoms: _127  and  _128
REMARK   51  A    between atoms: _128  and  _129
REMARK   52  A    between atoms: _129  and  _130
REMARK   53  A    between atoms: _134  and  _136
REMARK   54  A    between atoms: _136  and  _137
REMARK   55  A    between atoms: _136  and  _139
REMARK   56  A    between atoms: _139  and  _140
REMARK   57  A    between atoms: _140  and  _141
REMARK   58  A    between atoms: _141  and  _142
REMARK   59  A    between atoms: _142  and  _143
REMARK   60  A    between atoms: _147  and  _149
REMARK   61  A    between atoms: _149  and  _150
REMARK   62  A    between atoms: _149  and  _152
REMARK   63  A    between atoms: _152  and  _153
REMARK   64  A    between atoms: _156  and  _158
REMARK   65  A    between atoms: _158  and  _159
REMARK   66  A    between atoms: _158  and  _161
REMARK   67  A    between atoms: _161  and  _162
REMARK   68  A    between atoms: _162  and  _163
REMARK   69  A    between atoms: _163  and  _164
REMARK   70  A    between atoms: _173  and  _175
REMARK   71  A    between atoms: _175  and  _176
REMARK   72  A    between atoms: _175  and  _178
REMARK   73  A    between atoms: _178  and  _179
REMARK   74  A    between atoms: _179  and  _180
REMARK   75  A    between atoms: _180  and  _181
REMARK   76  A    between atoms: _190  and  _192
REMARK   77  A    between atoms: _192  and  _193
REMARK   78  A    between atoms: _192  and  _195
REMARK   79  A    between atoms: _195  and  _196
REMARK   80  A    between atoms: _196  and  _197
REMARK   81  A    between atoms: _200  and  _202
REMARK   82  A    between atoms: _202  and  _203
REMARK   83  A    between atoms: _202  and  _205
REMARK   84  A    between atoms: _205  and  _206
REMARK   85  A    between atoms: _209  and  _211
REMARK   86  A    between atoms: _211  and  _212
REMARK   87  A    between atoms: _211  and  _214
REMARK   88  A    between atoms: _214  and  _215
REMARK   89  A    between atoms: _218  and  _220
REMARK   90  A    between atoms: _220  and  _221
REMARK   91  A    between atoms: _220  and  _223
REMARK   92  A    between atoms: _223  and  _224
REMARK   93  A    between atoms: _227  and  _229
REMARK   94  A    between atoms: _229  and  _230
REMARK   95  A    between atoms: _229  and  _232
REMARK   96  A    between atoms: _232  and  _233
REMARK   97  A    between atoms: _233  and  _234
REMARK   98  A    between atoms: _236  and  _238
REMARK   99  A    between atoms: _238  and  _239
REMARK  100  A    between atoms: _238  and  _241
REMARK  101  A    between atoms: _241  and  _242
REMARK  102  A    between atoms: _247  and  _249
REMARK  103  A    between atoms: _249  and  _250
REMARK  104  A    between atoms: _249  and  _252
REMARK  105  A    between atoms: _255  and  _257
REMARK  106  A    between atoms: _257  and  _258
REMARK  107  A    between atoms: _257  and  _260
REMARK  108  A    between atoms: _260  and  _261
REMARK  109  A    between atoms: _264  and  _266
REMARK  110  A    between atoms: _266  and  _267
REMARK  111  A    between atoms: _269  and  _271
REMARK  112  A    between atoms: _271  and  _272
REMARK  113  A    between atoms: _271  and  _274
REMARK  114  A    between atoms: _274  and  _275
REMARK  115  A    between atoms: _278  and  _280
REMARK  116  A    between atoms: _280  and  _281
REMARK  117  A    between atoms: _280  and  _283
REMARK  118  A    between atoms: _283  and  _284
REMARK  119  A    between atoms: _287  and  _289
REMARK  120  A    between atoms: _289  and  _290
REMARK  121  A    between atoms: _289  and  _292
REMARK  122  A    between atoms: _292  and  _293
REMARK  123  A    between atoms: _296  and  _298
REMARK  124  A    between atoms: _298  and  _299
REMARK  125  A    between atoms: _298  and  _301
REMARK  126  A    between atoms: _301  and  _302
REMARK  127  A    between atoms: _307  and  _308
REMARK  128  A    between atoms: _310  and  _312
REMARK  129  A    between atoms: _312  and  _313
REMARK  130  A    between atoms: _312  and  _315
REMARK  131  A    between atoms: _315  and  _316
REMARK  132  A    between atoms: _319  and  _321
REMARK  133  A    between atoms: _321  and  _322
REMARK  134  A    between atoms: _321  and  _324
REMARK  135  A    between atoms: _327  and  _329
REMARK  136  A    between atoms: _329  and  _330
REMARK  137  A    between atoms: _329  and  _332
REMARK  138  A    between atoms: _332  and  _333
REMARK  139  A    between atoms: _336  and  _338
REMARK  140  A    between atoms: _338  and  _339
REMARK  141  A    between atoms: _338  and  _341
REMARK  142  A    between atoms: _341  and  _342
REMARK  143  A    between atoms: _347  and  _349
REMARK  144  A    between atoms: _349  and  _350
REMARK  145  A    between atoms: _349  and  _352
REMARK  146  A    between atoms: _352  and  _353
REMARK  147  A    between atoms: _356  and  _358
REMARK  148  A    between atoms: _358  and  _359
REMARK  149  A    between atoms: _358  and  _361
REMARK  150  A    between atoms: _361  and  _362
REMARK  151  A    between atoms: _362  and  _363
REMARK  152  A    between atoms: _365  and  _367
REMARK  153  A    between atoms: _367  and  _368
REMARK  154  A    between atoms: _370  and  _372
REMARK  155  A    between atoms: _372  and  _373
REMARK  156  A    between atoms: _376  and  _378
REMARK  157  A    between atoms: _378  and  _379
REMARK  158  A    between atoms: _378  and  _381
REMARK  159  A    between atoms: _381  and  _382
REMARK  160  A    between atoms: _385  and  _387
REMARK  161  A    between atoms: _387  and  _388
REMARK  162  A    between atoms: _387  and  _390
REMARK  163  A    between atoms: _390  and  _391
REMARK  164  A    between atoms: _396  and  _398
REMARK  165  A    between atoms: _398  and  _399
REMARK  166  A    between atoms: _398  and  _401
REMARK  167  A    between atoms: _401  and  _402
REMARK  168  A    between atoms: _407  and  _409
REMARK  169  A    between atoms: _409  and  _410
REMARK  170  A    between atoms: _412  and  _414
REMARK  171  A    between atoms: _414  and  _415
REMARK  172  A    between atoms: _414  and  _417
REMARK  173  A    between atoms: _417  and  _418
REMARK  174  A    between atoms: _421  and  _423
REMARK  175  A    between atoms: _423  and  _424
REMARK  176  A    between atoms: _423  and  _426
REMARK  177  A    between atoms: _426  and  _427
REMARK  178  A    between atoms: _432  and  _433
REMARK  179  A    between atoms: _435  and  _437
REMARK  180  A    between atoms: _437  and  _438
REMARK  181  A    between atoms: _437  and  _440
REMARK  182  A    between atoms: _440  and  _441
REMARK  183  A    between atoms: _444  and  _446
REMARK  184  A    between atoms: _446  and  _447
REMARK  185  A    between atoms: _446  and  _449
REMARK  186  A    between atoms: _449  and  _450
REMARK  187  A    between atoms: _453  and  _455
REMARK  188  A    between atoms: _455  and  _456
REMARK  189  A    between atoms: _455  and  _458
REMARK  190  A    between atoms: _458  and  _459
REMARK  191  A    between atoms: _462  and  _464
REMARK  192  A    between atoms: _464  and  _465
REMARK  193  A    between atoms: _464  and  _467
REMARK  194  A    between atoms: _467  and  _468
REMARK  195  A    between atoms: _473  and  _475
REMARK  196  A    between atoms: _475  and  _476
REMARK  197  A    between atoms: _475  and  _478
REMARK  198  A    between atoms: _478  and  _479
REMARK  199  A    between atoms: _479  and  _480
REMARK  200  A    between atoms: _480  and  _481
REMARK  201  A    between atoms: _490  and  _492
REMARK  202  A    between atoms: _492  and  _493
REMARK  203  A    between atoms: _492  and  _495
REMARK  204  A    between atoms: _495  and  _496
REMARK  205  A    between atoms: _499  and  _501
REMARK  206  A    between atoms: _501  and  _502
REMARK  207  A    between atoms: _501  and  _504
REMARK  208  A    between atoms: _504  and  _505
REMARK  209  A    between atoms: _508  and  _510
REMARK  210  A    between atoms: _510  and  _511
REMARK  211  A    between atoms: _510  and  _513
REMARK  212  A    between atoms: _513  and  _514
REMARK  213  A    between atoms: _516  and  _518
REMARK  214  A    between atoms: _518  and  _519
REMARK  215  A    between atoms: _518  and  _521
REMARK  216  A    between atoms: _521  and  _522
REMARK  217  A    between atoms: _527  and  _529
REMARK  218  A    between atoms: _529  and  _530
REMARK  219  A    between atoms: _533  and  _535
REMARK  220  A    between atoms: _535  and  _536
REMARK  221  A    between atoms: _535  and  _538
REMARK  222  A    between atoms: _538  and  _539
REMARK  223  A    between atoms: _539  and  _540
REMARK  224  A    between atoms: _540  and  _541
REMARK  225  A    between atoms: _541  and  _542
REMARK  226  A    between atoms: _546  and  _548
REMARK  227  A    between atoms: _548  and  _549
REMARK  228  A    between atoms: _548  and  _551
REMARK  229  A    between atoms: _551  and  _552
REMARK  230  A    between atoms: _555  and  _557
REMARK  231  A    between atoms: _557  and  _558
REMARK  232  A    between atoms: _557  and  _560
REMARK  233  A    between atoms: _560  and  _561
REMARK  234  A    between atoms: _564  and  _566
REMARK  235  A    between atoms: _566  and  _567
REMARK  236  A    between atoms: _566  and  _569
REMARK  237  A    between atoms: _569  and  _570
REMARK  238  A    between atoms: _573  and  _575
REMARK  239  A    between atoms: _575  and  _576
REMARK  240  A    between atoms: _575  and  _578
REMARK  241  A    between atoms: _578  and  _579
REMARK  242  A    between atoms: _585  and  _587
REMARK  243  A    between atoms: _587  and  _588
REMARK  244  A    between atoms: _590  and  _592
REMARK  245  A    between atoms: _592  and  _593
REMARK  246  A    between atoms: _592  and  _595
REMARK  247  A    between atoms: _595  and  _596
REMARK                            x       y       z     vdW  Elec       q    Type
REMARK                         _______ _______ _______ _____ _____    ______ ____
ROOT
ATOM      1  O   HOH     1       2.727   6.861  12.308  0.00  0.00    +0.000 OA
ENDROOT
TORSDOF 0
REMARK  Name = ../refined-set-2016/2bak/2bak_pocket.pdb
REMARK  247 active torsions:
REMARK  status: ('A' for Active; 'I' for Inactive)
REMARK    1  A    between atoms: _2  and  _3
REMARK    2  A    between atoms: _8  and  _10
REMARK    3  A    between atoms: _10  and  _11
REMARK    4  A    between atoms: _10  and  _13
REMARK    5  A    between atoms: _16  and  _18
REMARK    6  A    between atoms: _18  and  _19
REMARK    7  A    between atoms: _21  and  _23
REMARK    8  A    between atoms: _23  and  _24
REMARK    9  A    between atoms: _23  and  _26
REMARK   10  A    between atoms: _26  and  _27
REMARK   11  A    between atoms: _29  and  _31
REMARK   12  A    between atoms: _31  and  _32
REMARK   13  A    between atoms: _34  and  _36
REMARK   14  A    between atoms: _36  and  _37
REMARK   15  A    between atoms: _36  and  _39
REMARK   16  A    between atoms: _39  and  _40
REMARK   17  A    between atoms: _45  and  _46
REMARK   18  A    between atoms: _48  and  _50
REMARK   19  A    between atoms: _50  and  _51
REMARK   20  A    between atoms: _53  and  _55
REMARK   21  A    between atoms: _55  and  _56
REMARK   22  A    between atoms: _55  and  _58
REMARK   23  A    between atoms: _58  and  _59
REMARK   24  A    between atoms: _61  and  _63
REMARK   25  A    between atoms: _63  and  _64
REMARK   26  A    between atoms: _63  and  _66
REMARK   27  A    between atoms: _69  and  _71
REMARK   28  A    between atoms: _71  and  _72
REMARK   29  A    between atoms: _71  and  _74
REMARK   30  A    between atoms: _76  and  _78
REMARK   31  A    between atoms: _78  and  _79
REMARK   32  A    between atoms: _82  and  _84
REMARK   33  A    between atoms: _84  and  _85
REMARK   34  A    between atoms: _84  and  _87
REMARK   35  A    between atoms: _87  and  _88
REMARK   36  A    between atoms: _88  and  _89
REMARK   37  A    between atoms: _89  and  _90
REMARK   38  A    between atoms: _99  and  _101
REMARK   39  A    between atoms: _101  and  _102
REMARK   40  A    between atoms: _101  and  _104
REMARK   41  A    between atoms: _107  and  _109
REMARK   42  A    between atoms: _109  and  _110
REMARK   43  A    between atoms: _113  and  _115
REMARK   44  A    between atoms: _115  and  _116
REMARK   45  A    between atoms: _115  and  _118
REMARK   46  A    between atoms: _121  and  _123
REMARK   47  A    between atoms: _123  and  _124
REMARK   48  A    between atoms: _123  and  _126
REMARK   49  A    between atoms: _126  and  _127
REMARK   50  A    between atoms: _127  and  _128
REMARK   51  A    between atoms: _128  and  _129
REMARK   52  A    between atoms: _129  and  _130
REMARK   53  A    between atoms: _134  and  _136
REMARK   54  A    between atoms: _136  and  _137
REMARK   55  A    between atoms: _136  and  _139
REMARK   56  A    between atoms: _139  and  _140
REMARK   57  A    between atoms: _140  and  _141
REMARK   58  A    between atoms: _141  and  _142
REMARK   59  A    between atoms: _142  and  _143
REMARK   60  A    between atoms: _147  and  _149
REMARK   61  A    between atoms: _149  and  _150
REMARK   62  A    between atoms: _149  and  _152
REMARK   63  A    between atoms: _152  and  _153
REMARK   64  A    between atoms: _156  and  _158
REMARK   65  A    between atoms: _158  and  _159
REMARK   66  A    between atoms: _158  and  _161
REMARK   67  A    between atoms: _161  and  _162
REMARK   68  A    between atoms: _162  and  _163
REMARK   69  A    between atoms: _163  and  _164
REMARK   70  A    between atoms: _173  and  _175
REMARK   71  A    between atoms: _175  and  _176
REMARK   72  A    between atoms: _175  and  _178
REMARK   73  A    between atoms: _178  and  _179
REMARK   74  A    between atoms: _179  and  _180
REMARK   75  A    between atoms: _180  and  _181
REMARK   76  A    between atoms: _190  and  _192
REMARK   77  A    between atoms: _192  and  _193
REMARK   78  A    between atoms: _192  and  _195
REMARK   79  A    between atoms: _195  and  _196
REMARK   80  A    between atoms: _196  and  _197
REMARK   81  A    between atoms: _200  and  _202
REMARK   82  A    between atoms: _202  and  _203
REMARK   83  A    between atoms: _202  and  _205
REMARK   84  A    between atoms: _205  and  _206
REMARK   85  A    between atoms: _209  and  _211
REMARK   86  A    between atoms: _211  and  _212
REMARK   87  A    between atoms: _211  and  _214
REMARK   88  A    between atoms: _214  and  _215
REMARK   89  A    between atoms: _218  and  _220
REMARK   90  A    between atoms: _220  and  _221
REMARK   91  A    between atoms: _220  and  _223
REMARK   92  A    between atoms: _223  and  _224
REMARK   93  A    between atoms: _227  and  _229
REMARK   94  A    between atoms: _229  and  _230
REMARK   95  A    between atoms: _229  and  _232
REMARK   96  A    between atoms: _232  and  _233
REMARK   97  A    between atoms: _233  and  _234
REMARK   98  A    between atoms: _236  and  _238
REMARK   99  A    between atoms: _238  and  _239
REMARK  100  A    between atoms: _238  and  _241
REMARK  101  A    between atoms: _241  and  _242
REMARK  102  A    between atoms: _247  and  _249
REMARK  103  A    between atoms: _249  and  _250
REMARK  104  A    between atoms: _249  and  _252
REMARK  105  A    between atoms: _255  and  _257
REMARK  106  A    between atoms: _257  and  _258
REMARK  107  A    between atoms: _257  and  _260
REMARK  108  A    between atoms: _260  and  _261
REMARK  109  A    between atoms: _264  and  _266
REMARK  110  A    between atoms: _266  and  _267
REMARK  111  A    between atoms: _269  and  _271
REMARK  112  A    between atoms: _271  and  _272
REMARK  113  A    between atoms: _271  and  _274
REMARK  114  A    between atoms: _274  and  _275
REMARK  115  A    between atoms: _278  and  _280
REMARK  116  A    between atoms: _280  and  _281
REMARK  117  A    between atoms: _280  and  _283
REMARK  118  A    between atoms: _283  and  _284
REMARK  119  A    between atoms: _287  and  _289
REMARK  120  A    between atoms: _289  and  _290
REMARK  121  A    between atoms: _289  and  _292
REMARK  122  A    between atoms: _292  and  _293
REMARK  123  A    between atoms: _296  and  _298
REMARK  124  A    between atoms: _298  and  _299
REMARK  125  A    between atoms: _298  and  _301
REMARK  126  A    between atoms: _301  and  _302
REMARK  127  A    between atoms: _307  and  _308
REMARK  128  A    between atoms: _310  and  _312
REMARK  129  A    between atoms: _312  and  _313
REMARK  130  A    between atoms: _312  and  _315
REMARK  131  A    between atoms: _315  and  _316
REMARK  132  A    between atoms: _319  and  _321
REMARK  133  A    between atoms: _321  and  _322
REMARK  134  A    between atoms: _321  and  _324
REMARK  135  A    between atoms: _327  and  _329
REMARK  136  A    between atoms: _329  and  _330
REMARK  137  A    between atoms: _329  and  _332
REMARK  138  A    between atoms: _332  and  _333
REMARK  139  A    between atoms: _336  and  _338
REMARK  140  A    between atoms: _338  and  _339
REMARK  141  A    between atoms: _338  and  _341
REMARK  142  A    between atoms: _341  and  _342
REMARK  143  A    between atoms: _347  and  _349
REMARK  144  A    between atoms: _349  and  _350
REMARK  145  A    between atoms: _349  and  _352
REMARK  146  A    between atoms: _352  and  _353
REMARK  147  A    between atoms: _356  and  _358
REMARK  148  A    between atoms: _358  and  _359
REMARK  149  A    between atoms: _358  and  _361
REMARK  150  A    between atoms: _361  and  _362
REMARK  151  A    between atoms: _362  and  _363
REMARK  152  A    between atoms: _365  and  _367
REMARK  153  A    between atoms: _367  and  _368
REMARK  154  A    between atoms: _370  and  _372
REMARK  155  A    between atoms: _372  and  _373
REMARK  156  A    between atoms: _376  and  _378
REMARK  157  A    between atoms: _378  and  _379
REMARK  158  A    between atoms: _378  and  _381
REMARK  159  A    between atoms: _381  and  _382
REMARK  160  A    between atoms: _385  and  _387
REMARK  161  A    between atoms: _387  and  _388
REMARK  162  A    between atoms: _387  and  _390
REMARK  163  A    between atoms: _390  and  _391
REMARK  164  A    between atoms: _396  and  _398
REMARK  165  A    between atoms: _398  and  _399
REMARK  166  A    between atoms: _398  and  _401
REMARK  167  A    between atoms: _401  and  _402
REMARK  168  A    between atoms: _407  and  _409
REMARK  169  A    between atoms: _409  and  _410
REMARK  170  A    between atoms: _412  and  _414
REMARK  171  A    between atoms: _414  and  _415
REMARK  172  A    between atoms: _414  and  _417
REMARK  173  A    between atoms: _417  and  _418
REMARK  174  A    between atoms: _421  and  _423
REMARK  175  A    between atoms: _423  and  _424
REMARK  176  A    between atoms: _423  and  _426
REMARK  177  A    between atoms: _426  and  _427
REMARK  178  A    between atoms: _432  and  _433
REMARK  179  A    between atoms: _435  and  _437
REMARK  180  A    between atoms: _437  and  _438
REMARK  181  A    between atoms: _437  and  _440
REMARK  182  A    between atoms: _440  and  _441
REMARK  183  A    between atoms: _444  and  _446
REMARK  184  A    between atoms: _446  and  _447
REMARK  185  A    between atoms: _446  and  _449
REMARK  186  A    between atoms: _449  and  _450
REMARK  187  A    between atoms: _453  and  _455
REMARK  188  A    between atoms: _455  and  _456
REMARK  189  A    between atoms: _455  and  _458
REMARK  190  A    between atoms: _458  and  _459
REMARK  191  A    between atoms: _462  and  _464
REMARK  192  A    between atoms: _464  and  _465
REMARK  193  A    between atoms: _464  and  _467
REMARK  194  A    between atoms: _467  and  _468
REMARK  195  A    between atoms: _473  and  _475
REMARK  196  A    between atoms: _475  and  _476
REMARK  197  A    between atoms: _475  and  _478
REMARK  198  A    between atoms: _478  and  _479
REMARK  199  A    between atoms: _479  and  _480
REMARK  200  A    between atoms: _480  and  _481
REMARK  201  A    between atoms: _490  and  _492
REMARK  202  A    between atoms: _492  and  _493
REMARK  203  A    between atoms: _492  and  _495
REMARK  204  A    between atoms: _495  and  _496
REMARK  205  A    between atoms: _499  and  _501
REMARK  206  A    between atoms: _501  and  _502
REMARK  207  A    between atoms: _501  and  _504
REMARK  208  A    between atoms: _504  and  _505
REMARK  209  A    between atoms: _508  and  _510
REMARK  210  A    between atoms: _510  and  _511
REMARK  211  A    between atoms: _510  and  _513
REMARK  212  A    between atoms: _513  and  _514
REMARK  213  A    between atoms: _516  and  _518
REMARK  214  A    between atoms: _518  and  _519
REMARK  215  A    between atoms: _518  and  _521
REMARK  216  A    between atoms: _521  and  _522
REMARK  217  A    between atoms: _527  and  _529
REMARK  218  A    between atoms: _529  and  _530
REMARK  219  A    between atoms: _533  and  _535
REMARK  220  A    between atoms: _535  and  _536
REMARK  221  A    between atoms: _535  and  _538
REMARK  222  A    between atoms: _538  and  _539
REMARK  223  A    between atoms: _539  and  _540
REMARK  224  A    between atoms: _540  and  _541
REMARK  225  A    between atoms: _541  and  _542
REMARK  226  A    between atoms: _546  and  _548
REMARK  227  A    between atoms: _548  and  _549
REMARK  228  A    between atoms: _548  and  _551
REMARK  229  A    between atoms: _551  and  _552
REMARK  230  A    between atoms: _555  and  _557
REMARK  231  A    between atoms: _557  and  _558
REMARK  232  A    between atoms: _557  and  _560
REMARK  233  A    between atoms: _560  and  _561
REMARK  234  A    between atoms: _564  and  _566
REMARK  235  A    between atoms: _566  and  _567
REMARK  236  A    between atoms: _566  and  _569
REMARK  237  A    between atoms: _569  and  _570
REMARK  238  A    between atoms: _573  and  _575
REMARK  239  A    between atoms: _575  and  _576
REMARK  240  A    between atoms: _575  and  _578
REMARK  241  A    between atoms: _578  and  _579
REMARK  242  A    between atoms: _585  and  _587
REMARK  243  A    between atoms: _587  and  _588
REMARK  244  A    between atoms: _590  and  _592
REMARK  245  A    between atoms: _592  and  _593
REMARK  246  A    between atoms: _592  and  _595
REMARK  247  A    between atoms: _595  and  _596
REMARK                            x       y       z     vdW  Elec       q    Type
REMARK                         _______ _______ _______ _____ _____    ______ ____
ROOT
ATOM      1  O   HOH     1      -1.935  -6.670  15.159  0.00  0.00    +0.000 OA
ENDROOT
TORSDOF 0
REMARK  Name = ../refined-set-2016/2bak/2bak_pocket.pdb
REMARK  247 active torsions:
REMARK  status: ('A' for Active; 'I' for Inactive)
REMARK    1  A    between atoms: _2  and  _3
REMARK    2  A    between atoms: _8  and  _10
REMARK    3  A    between atoms: _10  and  _11
REMARK    4  A    between atoms: _10  and  _13
REMARK    5  A    between atoms: _16  and  _18
REMARK    6  A    between atoms: _18  and  _19
REMARK    7  A    between atoms: _21  and  _23
REMARK    8  A    between atoms: _23  and  _24
REMARK    9  A    between atoms: _23  and  _26
REMARK   10  A    between atoms: _26  and  _27
REMARK   11  A    between atoms: _29  and  _31
REMARK   12  A    between atoms: _31  and  _32
REMARK   13  A    between atoms: _34  and  _36
REMARK   14  A    between atoms: _36  and  _37
REMARK   15  A    between atoms: _36  and  _39
REMARK   16  A    between atoms: _39  and  _40
REMARK   17  A    between atoms: _45  and  _46
REMARK   18  A    between atoms: _48  and  _50
REMARK   19  A    between atoms: _50  and  _51
REMARK   20  A    between atoms: _53  and  _55
REMARK   21  A    between atoms: _55  and  _56
REMARK   22  A    between atoms: _55  and  _58
REMARK   23  A    between atoms: _58  and  _59
REMARK   24  A    between atoms: _61  and  _63
REMARK   25  A    between atoms: _63  and  _64
REMARK   26  A    between atoms: _63  and  _66
REMARK   27  A    between atoms: _69  and  _71
REMARK   28  A    between atoms: _71  and  _72
REMARK   29  A    between atoms: _71  and  _74
REMARK   30  A    between atoms: _76  and  _78
REMARK   31  A    between atoms: _78  and  _79
REMARK   32  A    between atoms: _82  and  _84
REMARK   33  A    between atoms: _84  and  _85
REMARK   34  A    between atoms: _84  and  _87
REMARK   35  A    between atoms: _87  and  _88
REMARK   36  A    between atoms: _88  and  _89
REMARK   37  A    between atoms: _89  and  _90
REMARK   38  A    between atoms: _99  and  _101
REMARK   39  A    between atoms: _101  and  _102
REMARK   40  A    between atoms: _101  and  _104
REMARK   41  A    between atoms: _107  and  _109
REMARK   42  A    between atoms: _109  and  _110
REMARK   43  A    between atoms: _113  and  _115
REMARK   44  A    between atoms: _115  and  _116
REMARK   45  A    between atoms: _115  and  _118
REMARK   46  A    between atoms: _121  and  _123
REMARK   47  A    between atoms: _123  and  _124
REMARK   48  A    between atoms: _123  and  _126
REMARK   49  A    between atoms: _126  and  _127
REMARK   50  A    between atoms: _127  and  _128
REMARK   51  A    between atoms: _128  and  _129
REMARK   52  A    between atoms: _129  and  _130
REMARK   53  A    between atoms: _134  and  _136
REMARK   54  A    between atoms: _136  and  _137
REMARK   55  A    between atoms: _136  and  _139
REMARK   56  A    between atoms: _139  and  _140
REMARK   57  A    between atoms: _140  and  _141
REMARK   58  A    between atoms: _141  and  _142
REMARK   59  A    between atoms: _142  and  _143
REMARK   60  A    between atoms: _147  and  _149
REMARK   61  A    between atoms: _149  and  _150
REMARK   62  A    between atoms: _149  and  _152
REMARK   63  A    between atoms: _152  and  _153
REMARK   64  A    between atoms: _156  and  _158
REMARK   65  A    between atoms: _158  and  _159
REMARK   66  A    between atoms: _158  and  _161
REMARK   67  A    between atoms: _161  and  _162
REMARK   68  A    between atoms: _162  and  _163
REMARK   69  A    between atoms: _163  and  _164
REMARK   70  A    between atoms: _173  and  _175
REMARK   71  A    between atoms: _175  and  _176
REMARK   72  A    between atoms: _175  and  _178
REMARK   73  A    between atoms: _178  and  _179
REMARK   74  A    between atoms: _179  and  _180
REMARK   75  A    between atoms: _180  and  _181
REMARK   76  A    between atoms: _190  and  _192
REMARK   77  A    between atoms: _192  and  _193
REMARK   78  A    between atoms: _192  and  _195
REMARK   79  A    between atoms: _195  and  _196
REMARK   80  A    between atoms: _196  and  _197
REMARK   81  A    between atoms: _200  and  _202
REMARK   82  A    between atoms: _202  and  _203
REMARK   83  A    between atoms: _202  and  _205
REMARK   84  A    between atoms: _205  and  _206
REMARK   85  A    between atoms: _209  and  _211
REMARK   86  A    between atoms: _211  and  _212
REMARK   87  A    between atoms: _211  and  _214
REMARK   88  A    between atoms: _214  and  _215
REMARK   89  A    between atoms: _218  and  _220
REMARK   90  A    between atoms: _220  and  _221
REMARK   91  A    between atoms: _220  and  _223
REMARK   92  A    between atoms: _223  and  _224
REMARK   93  A    between atoms: _227  and  _229
REMARK   94  A    between atoms: _229  and  _230
REMARK   95  A    between atoms: _229  and  _232
REMARK   96  A    between atoms: _232  and  _233
REMARK   97  A    between atoms: _233  and  _234
REMARK   98  A    between atoms: _236  and  _238
REMARK   99  A    between atoms: _238  and  _239
REMARK  100  A    between atoms: _238  and  _241
REMARK  101  A    between atoms: _241  and  _242
REMARK  102  A    between atoms: _247  and  _249
REMARK  103  A    between atoms: _249  and  _250
REMARK  104  A    between atoms: _249  and  _252
REMARK  105  A    between atoms: _255  and  _257
REMARK  106  A    between atoms: _257  and  _258
REMARK  107  A    between atoms: _257  and  _260
REMARK  108  A    between atoms: _260  and  _261
REMARK  109  A    between atoms: _264  and  _266
REMARK  110  A    between atoms: _266  and  _267
REMARK  111  A    between atoms: _269  and  _271
REMARK  112  A    between atoms: _271  and  _272
REMARK  113  A    between atoms: _271  and  _274
REMARK  114  A    between atoms: _274  and  _275
REMARK  115  A    between atoms: _278  and  _280
REMARK  116  A    between atoms: _280  and  _281
REMARK  117  A    between atoms: _280  and  _283
REMARK  118  A    between atoms: _283  and  _284
REMARK  119  A    between atoms: _287  and  _289
REMARK  120  A    between atoms: _289  and  _290
REMARK  121  A    between atoms: _289  and  _292
REMARK  122  A    between atoms: _292  and  _293
REMARK  123  A    between atoms: _296  and  _298
REMARK  124  A    between atoms: _298  and  _299
REMARK  125  A    between atoms: _298  and  _301
REMARK  126  A    between atoms: _301  and  _302
REMARK  127  A    between atoms: _307  and  _308
REMARK  128  A    between atoms: _310  and  _312
REMARK  129  A    between atoms: _312  and  _313
REMARK  130  A    between atoms: _312  and  _315
REMARK  131  A    between atoms: _315  and  _316
REMARK  132  A    between atoms: _319  and  _321
REMARK  133  A    between atoms: _321  and  _322
REMARK  134  A    between atoms: _321  and  _324
REMARK  135  A    between atoms: _327  and  _329
REMARK  136  A    between atoms: _329  and  _330
REMARK  137  A    between atoms: _329  and  _332
REMARK  138  A    between atoms: _332  and  _333
REMARK  139  A    between atoms: _336  and  _338
REMARK  140  A    between atoms: _338  and  _339
REMARK  141  A    between atoms: _338  and  _341
REMARK  142  A    between atoms: _341  and  _342
REMARK  143  A    between atoms: _347  and  _349
REMARK  144  A    between atoms: _349  and  _350
REMARK  145  A    between atoms: _349  and  _352
REMARK  146  A    between atoms: _352  and  _353
REMARK  147  A    between atoms: _356  and  _358
REMARK  148  A    between atoms: _358  and  _359
REMARK  149  A    between atoms: _358  and  _361
REMARK  150  A    between atoms: _361  and  _362
REMARK  151  A    between atoms: _362  and  _363
REMARK  152  A    between atoms: _365  and  _367
REMARK  153  A    between atoms: _367  and  _368
REMARK  154  A    between atoms: _370  and  _372
REMARK  155  A    between atoms: _372  and  _373
REMARK  156  A    between atoms: _376  and  _378
REMARK  157  A    between atoms: _378  and  _379
REMARK  158  A    between atoms: _378  and  _381
REMARK  159  A    between atoms: _381  and  _382
REMARK  160  A    between atoms: _385  and  _387
REMARK  161  A    between atoms: _387  and  _388
REMARK  162  A    between atoms: _387  and  _390
REMARK  163  A    between atoms: _390  and  _391
REMARK  164  A    between atoms: _396  and  _398
REMARK  165  A    between atoms: _398  and  _399
REMARK  166  A    between atoms: _398  and  _401
REMARK  167  A    between atoms: _401  and  _402
REMARK  168  A    between atoms: _407  and  _409
REMARK  169  A    between atoms: _409  and  _410
REMARK  170  A    between atoms: _412  and  _414
REMARK  171  A    between atoms: _414  and  _415
REMARK  172  A    between atoms: _414  and  _417
REMARK  173  A    between atoms: _417  and  _418
REMARK  174  A    between atoms: _421  and  _423
REMARK  175  A    between atoms: _423  and  _424
REMARK  176  A    between atoms: _423  and  _426
REMARK  177  A    between atoms: _426  and  _427
REMARK  178  A    between atoms: _432  and  _433
REMARK  179  A    between atoms: _435  and  _437
REMARK  180  A    between atoms: _437  and  _438
REMARK  181  A    between atoms: _437  and  _440
REMARK  182  A    between atoms: _440  and  _441
REMARK  183  A    between atoms: _444  and  _446
REMARK  184  A    between atoms: _446  and  _447
REMARK  185  A    between atoms: _446  and  _449
REMARK  186  A    between atoms: _449  and  _450
REMARK  187  A    between atoms: _453  and  _455
REMARK  188  A    between atoms: _455  and  _456
REMARK  189  A    between atoms: _455  and  _458
REMARK  190  A    between atoms: _458  and  _459
REMARK  191  A    between atoms: _462  and  _464
REMARK  192  A    between atoms: _464  and  _465
REMARK  193  A    between atoms: _464  and  _467
REMARK  194  A    between atoms: _467  and  _468
REMARK  195  A    between atoms: _473  and  _475
REMARK  196  A    between atoms: _475  and  _476
REMARK  197  A    between atoms: _475  and  _478
REMARK  198  A    between atoms: _478  and  _479
REMARK  199  A    between atoms: _479  and  _480
REMARK  200  A    between atoms: _480  and  _481
REMARK  201  A    between atoms: _490  and  _492
REMARK  202  A    between atoms: _492  and  _493
REMARK  203  A    between atoms: _492  and  _495
REMARK  204  A    between atoms: _495  and  _496
REMARK  205  A    between atoms: _499  and  _501
REMARK  206  A    between atoms: _501  and  _502
REMARK  207  A    between atoms: _501  and  _504
REMARK  208  A    between atoms: _504  and  _505
REMARK  209  A    between atoms: _508  and  _510
REMARK  210  A    between atoms: _510  and  _511
REMARK  211  A    between atoms: _510  and  _513
REMARK  212  A    between atoms: _513  and  _514
REMARK  213  A    between atoms: _516  and  _518
REMARK  214  A    between atoms: _518  and  _519
REMARK  215  A    between atoms: _518  and  _521
REMARK  216  A    between atoms: _521  and  _522
REMARK  217  A    between atoms: _527  and  _529
REMARK  218  A    between atoms: _529  and  _530
REMARK  219  A    between atoms: _533  and  _535
REMARK  220  A    between atoms: _535  and  _536
REMARK  221  A    between atoms: _535  and  _538
REMARK  222  A    between atoms: _538  and  _539
REMARK  223  A    between atoms: _539  and  _540
REMARK  224  A    between atoms: _540  and  _541
REMARK  225  A    between atoms: _541  and  _542
REMARK  226  A    between atoms: _546  and  _548
REMARK  227  A    between atoms: _548  and  _549
REMARK  228  A    between atoms: _548  and  _551
REMARK  229  A    between atoms: _551  and  _552
REMARK  230  A    between atoms: _555  and  _557
REMARK  231  A    between atoms: _557  and  _558
REMARK  232  A    between atoms: _557  and  _560
REMARK  233  A    between atoms: _560  and  _561
REMARK  234  A    between atoms: _564  and  _566
REMARK  235  A    between atoms: _566  and  _567
REMARK  236  A    between atoms: _566  and  _569
REMARK  237  A    between atoms: _569  and  _570
REMARK  238  A    between atoms: _573  and  _575
REMARK  239  A    between atoms: _575  and  _576
REMARK  240  A    between atoms: _575  and  _578
REMARK  241  A    between atoms: _578  and  _579
REMARK  242  A    between atoms: _585  and  _587
REMARK  243  A    between atoms: _587  and  _588
REMARK  244  A    between atoms: _590  and  _592
REMARK  245  A    between atoms: _592  and  _593
REMARK  246  A    between atoms: _592  and  _595
REMARK  247  A    between atoms: _595  and  _596
REMARK                            x       y       z     vdW  Elec       q    Type
REMARK                         _______ _______ _______ _____ _____    ______ ____
ROOT
ATOM      1  O   HOH     1       2.555   2.334  26.336  0.00  0.00    +0.000 OA
ENDROOT
TORSDOF 0
REMARK  Name = ../refined-set-2016/2bak/2bak_pocket.pdb
REMARK  247 active torsions:
REMARK  status: ('A' for Active; 'I' for Inactive)
REMARK    1  A    between atoms: _2  and  _3
REMARK    2  A    between atoms: _8  and  _10
REMARK    3  A    between atoms: _10  and  _11
REMARK    4  A    between atoms: _10  and  _13
REMARK    5  A    between atoms: _16  and  _18
REMARK    6  A    between atoms: _18  and  _19
REMARK    7  A    between atoms: _21  and  _23
REMARK    8  A    between atoms: _23  and  _24
REMARK    9  A    between atoms: _23  and  _26
REMARK   10  A    between atoms: _26  and  _27
REMARK   11  A    between atoms: _29  and  _31
REMARK   12  A    between atoms: _31  and  _32
REMARK   13  A    between atoms: _34  and  _36
REMARK   14  A    between atoms: _36  and  _37
REMARK   15  A    between atoms: _36  and  _39
REMARK   16  A    between atoms: _39  and  _40
REMARK   17  A    between atoms: _45  and  _46
REMARK   18  A    between atoms: _48  and  _50
REMARK   19  A    between atoms: _50  and  _51
REMARK   20  A    between atoms: _53  and  _55
REMARK   21  A    between atoms: _55  and  _56
REMARK   22  A    between atoms: _55  and  _58
REMARK   23  A    between atoms: _58  and  _59
REMARK   24  A    between atoms: _61  and  _63
REMARK   25  A    between atoms: _63  and  _64
REMARK   26  A    between atoms: _63  and  _66
REMARK   27  A    between atoms: _69  and  _71
REMARK   28  A    between atoms: _71  and  _72
REMARK   29  A    between atoms: _71  and  _74
REMARK   30  A    between atoms: _76  and  _78
REMARK   31  A    between atoms: _78  and  _79
REMARK   32  A    between atoms: _82  and  _84
REMARK   33  A    between atoms: _84  and  _85
REMARK   34  A    between atoms: _84  and  _87
REMARK   35  A    between atoms: _87  and  _88
REMARK   36  A    between atoms: _88  and  _89
REMARK   37  A    between atoms: _89  and  _90
REMARK   38  A    between atoms: _99  and  _101
REMARK   39  A    between atoms: _101  and  _102
REMARK   40  A    between atoms: _101  and  _104
REMARK   41  A    between atoms: _107  and  _109
REMARK   42  A    between atoms: _109  and  _110
REMARK   43  A    between atoms: _113  and  _115
REMARK   44  A    between atoms: _115  and  _116
REMARK   45  A    between atoms: _115  and  _118
REMARK   46  A    between atoms: _121  and  _123
REMARK   47  A    between atoms: _123  and  _124
REMARK   48  A    between atoms: _123  and  _126
REMARK   49  A    between atoms: _126  and  _127
REMARK   50  A    between atoms: _127  and  _128
REMARK   51  A    between atoms: _128  and  _129
REMARK   52  A    between atoms: _129  and  _130
REMARK   53  A    between atoms: _134  and  _136
REMARK   54  A    between atoms: _136  and  _137
REMARK   55  A    between atoms: _136  and  _139
REMARK   56  A    between atoms: _139  and  _140
REMARK   57  A    between atoms: _140  and  _141
REMARK   58  A    between atoms: _141  and  _142
REMARK   59  A    between atoms: _142  and  _143
REMARK   60  A    between atoms: _147  and  _149
REMARK   61  A    between atoms: _149  and  _150
REMARK   62  A    between atoms: _149  and  _152
REMARK   63  A    between atoms: _152  and  _153
REMARK   64  A    between atoms: _156  and  _158
REMARK   65  A    between atoms: _158  and  _159
REMARK   66  A    between atoms: _158  and  _161
REMARK   67  A    between atoms: _161  and  _162
REMARK   68  A    between atoms: _162  and  _163
REMARK   69  A    between atoms: _163  and  _164
REMARK   70  A    between atoms: _173  and  _175
REMARK   71  A    between atoms: _175  and  _176
REMARK   72  A    between atoms: _175  and  _178
REMARK   73  A    between atoms: _178  and  _179
REMARK   74  A    between atoms: _179  and  _180
REMARK   75  A    between atoms: _180  and  _181
REMARK   76  A    between atoms: _190  and  _192
REMARK   77  A    between atoms: _192  and  _193
REMARK   78  A    between atoms: _192  and  _195
REMARK   79  A    between atoms: _195  and  _196
REMARK   80  A    between atoms: _196  and  _197
REMARK   81  A    between atoms: _200  and  _202
REMARK   82  A    between atoms: _202  and  _203
REMARK   83  A    between atoms: _202  and  _205
REMARK   84  A    between atoms: _205  and  _206
REMARK   85  A    between atoms: _209  and  _211
REMARK   86  A    between atoms: _211  and  _212
REMARK   87  A    between atoms: _211  and  _214
REMARK   88  A    between atoms: _214  and  _215
REMARK   89  A    between atoms: _218  and  _220
REMARK   90  A    between atoms: _220  and  _221
REMARK   91  A    between atoms: _220  and  _223
REMARK   92  A    between atoms: _223  and  _224
REMARK   93  A    between atoms: _227  and  _229
REMARK   94  A    between atoms: _229  and  _230
REMARK   95  A    between atoms: _229  and  _232
REMARK   96  A    between atoms: _232  and  _233
REMARK   97  A    between atoms: _233  and  _234
REMARK   98  A    between atoms: _236  and  _238
REMARK   99  A    between atoms: _238  and  _239
REMARK  100  A    between atoms: _238  and  _241
REMARK  101  A    between atoms: _241  and  _242
REMARK  102  A    between atoms: _247  and  _249
REMARK  103  A    between atoms: _249  and  _250
REMARK  104  A    between atoms: _249  and  _252
REMARK  105  A    between atoms: _255  and  _257
REMARK  106  A    between atoms: _257  and  _258
REMARK  107  A    between atoms: _257  and  _260
REMARK  108  A    between atoms: _260  and  _261
REMARK  109  A    between atoms: _264  and  _266
REMARK  110  A    between atoms: _266  and  _267
REMARK  111  A    between atoms: _269  and  _271
REMARK  112  A    between atoms: _271  and  _272
REMARK  113  A    between atoms: _271  and  _274
REMARK  114  A    between atoms: _274  and  _275
REMARK  115  A    between atoms: _278  and  _280
REMARK  116  A    between atoms: _280  and  _281
REMARK  117  A    between atoms: _280  and  _283
REMARK  118  A    between atoms: _283  and  _284
REMARK  119  A    between atoms: _287  and  _289
REMARK  120  A    between atoms: _289  and  _290
REMARK  121  A    between atoms: _289  and  _292
REMARK  122  A    between atoms: _292  and  _293
REMARK  123  A    between atoms: _296  and  _298
REMARK  124  A    between atoms: _298  and  _299
REMARK  125  A    between atoms: _298  and  _301
REMARK  126  A    between atoms: _301  and  _302
REMARK  127  A    between atoms: _307  and  _308
REMARK  128  A    between atoms: _310  and  _312
REMARK  129  A    between atoms: _312  and  _313
REMARK  130  A    between atoms: _312  and  _315
REMARK  131  A    between atoms: _315  and  _316
REMARK  132  A    between atoms: _319  and  _321
REMARK  133  A    between atoms: _321  and  _322
REMARK  134  A    between atoms: _321  and  _324
REMARK  135  A    between atoms: _327  and  _329
REMARK  136  A    between atoms: _329  and  _330
REMARK  137  A    between atoms: _329  and  _332
REMARK  138  A    between atoms: _332  and  _333
REMARK  139  A    between atoms: _336  and  _338
REMARK  140  A    between atoms: _338  and  _339
REMARK  141  A    between atoms: _338  and  _341
REMARK  142  A    between atoms: _341  and  _342
REMARK  143  A    between atoms: _347  and  _349
REMARK  144  A    between atoms: _349  and  _350
REMARK  145  A    between atoms: _349  and  _352
REMARK  146  A    between atoms: _352  and  _353
REMARK  147  A    between atoms: _356  and  _358
REMARK  148  A    between atoms: _358  and  _359
REMARK  149  A    between atoms: _358  and  _361
REMARK  150  A    between atoms: _361  and  _362
REMARK  151  A    between atoms: _362  and  _363
REMARK  152  A    between atoms: _365  and  _367
REMARK  153  A    between atoms: _367  and  _368
REMARK  154  A    between atoms: _370  and  _372
REMARK  155  A    between atoms: _372  and  _373
REMARK  156  A    between atoms: _376  and  _378
REMARK  157  A    between atoms: _378  and  _379
REMARK  158  A    between atoms: _378  and  _381
REMARK  159  A    between atoms: _381  and  _382
REMARK  160  A    between atoms: _385  and  _387
REMARK  161  A    between atoms: _387  and  _388
REMARK  162  A    between atoms: _387  and  _390
REMARK  163  A    between atoms: _390  and  _391
REMARK  164  A    between atoms: _396  and  _398
REMARK  165  A    between atoms: _398  and  _399
REMARK  166  A    between atoms: _398  and  _401
REMARK  167  A    between atoms: _401  and  _402
REMARK  168  A    between atoms: _407  and  _409
REMARK  169  A    between atoms: _409  and  _410
REMARK  170  A    between atoms: _412  and  _414
REMARK  171  A    between atoms: _414  and  _415
REMARK  172  A    between atoms: _414  and  _417
REMARK  173  A    between atoms: _417  and  _418
REMARK  174  A    between atoms: _421  and  _423
REMARK  175  A    between atoms: _423  and  _424
REMARK  176  A    between atoms: _423  and  _426
REMARK  177  A    between atoms: _426  and  _427
REMARK  178  A    between atoms: _432  and  _433
REMARK  179  A    between atoms: _435  and  _437
REMARK  180  A    between atoms: _437  and  _438
REMARK  181  A    between atoms: _437  and  _440
REMARK  182  A    between atoms: _440  and  _441
REMARK  183  A    between atoms: _444  and  _446
REMARK  184  A    between atoms: _446  and  _447
REMARK  185  A    between atoms: _446  and  _449
REMARK  186  A    between atoms: _449  and  _450
REMARK  187  A    between atoms: _453  and  _455
REMARK  188  A    between atoms: _455  and  _456
REMARK  189  A    between atoms: _455  and  _458
REMARK  190  A    between atoms: _458  and  _459
REMARK  191  A    between atoms: _462  and  _464
REMARK  192  A    between atoms: _464  and  _465
REMARK  193  A    between atoms: _464  and  _467
REMARK  194  A    between atoms: _467  and  _468
REMARK  195  A    between atoms: _473  and  _475
REMARK  196  A    between atoms: _475  and  _476
REMARK  197  A    between atoms: _475  and  _478
REMARK  198  A    between atoms: _478  and  _479
REMARK  199  A    between atoms: _479  and  _480
REMARK  200  A    between atoms: _480  and  _481
REMARK  201  A    between atoms: _490  and  _492
REMARK  202  A    between atoms: _492  and  _493
REMARK  203  A    between atoms: _492  and  _495
REMARK  204  A    between atoms: _495  and  _496
REMARK  205  A    between atoms: _499  and  _501
REMARK  206  A    between atoms: _501  and  _502
REMARK  207  A    between atoms: _501  and  _504
REMARK  208  A    between atoms: _504  and  _505
REMARK  209  A    between atoms: _508  and  _510
REMARK  210  A    between atoms: _510  and  _511
REMARK  211  A    between atoms: _510  and  _513
REMARK  212  A    between atoms: _513  and  _514
REMARK  213  A    between atoms: _516  and  _518
REMARK  214  A    between atoms: _518  and  _519
REMARK  215  A    between atoms: _518  and  _521
REMARK  216  A    between atoms: _521  and  _522
REMARK  217  A    between atoms: _527  and  _529
REMARK  218  A    between atoms: _529  and  _530
REMARK  219  A    between atoms: _533  and  _535
REMARK  220  A    between atoms: _535  and  _536
REMARK  221  A    between atoms: _535  and  _538
REMARK  222  A    between atoms: _538  and  _539
REMARK  223  A    between atoms: _539  and  _540
REMARK  224  A    between atoms: _540  and  _541
REMARK  225  A    between atoms: _541  and  _542
REMARK  226  A    between atoms: _546  and  _548
REMARK  227  A    between atoms: _548  and  _549
REMARK  228  A    between atoms: _548  and  _551
REMARK  229  A    between atoms: _551  and  _552
REMARK  230  A    between atoms: _555  and  _557
REMARK  231  A    between atoms: _557  and  _558
REMARK  232  A    between atoms: _557  and  _560
REMARK  233  A    between atoms: _560  and  _561
REMARK  234  A    between atoms: _564  and  _566
REMARK  235  A    between atoms: _566  and  _567
REMARK  236  A    between atoms: _566  and  _569
REMARK  237  A    between atoms: _569  and  _570
REMARK  238  A    between atoms: _573  and  _575
REMARK  239  A    between atoms: _575  and  _576
REMARK  240  A    between atoms: _575  and  _578
REMARK  241  A    between atoms: _578  and  _579
REMARK  242  A    between atoms: _585  and  _587
REMARK  243  A    between atoms: _587  and  _588
REMARK  244  A    between atoms: _590  and  _592
REMARK  245  A    between atoms: _592  and  _593
REMARK  246  A    between atoms: _592  and  _595
REMARK  247  A    between atoms: _595  and  _596
REMARK                            x       y       z     vdW  Elec       q    Type
REMARK                         _______ _______ _______ _____ _____    ______ ____
ROOT
ATOM      1  O   HOH     1      -3.746   4.662  20.980  0.00  0.00    +0.000 OA
ENDROOT
TORSDOF 0
REMARK  Name = ../refined-set-2016/2bak/2bak_pocket.pdb
REMARK  247 active torsions:
REMARK  status: ('A' for Active; 'I' for Inactive)
REMARK    1  A    between atoms: _2  and  _3
REMARK    2  A    between atoms: _8  and  _10
REMARK    3  A    between atoms: _10  and  _11
REMARK    4  A    between atoms: _10  and  _13
REMARK    5  A    between atoms: _16  and  _18
REMARK    6  A    between atoms: _18  and  _19
REMARK    7  A    between atoms: _21  and  _23
REMARK    8  A    between atoms: _23  and  _24
REMARK    9  A    between atoms: _23  and  _26
REMARK   10  A    between atoms: _26  and  _27
REMARK   11  A    between atoms: _29  and  _31
REMARK   12  A    between atoms: _31  and  _32
REMARK   13  A    between atoms: _34  and  _36
REMARK   14  A    between atoms: _36  and  _37
REMARK   15  A    between atoms: _36  and  _39
REMARK   16  A    between atoms: _39  and  _40
REMARK   17  A    between atoms: _45  and  _46
REMARK   18  A    between atoms: _48  and  _50
REMARK   19  A    between atoms: _50  and  _51
REMARK   20  A    between atoms: _53  and  _55
REMARK   21  A    between atoms: _55  and  _56
REMARK   22  A    between atoms: _55  and  _58
REMARK   23  A    between atoms: _58  and  _59
REMARK   24  A    between atoms: _61  and  _63
REMARK   25  A    between atoms: _63  and  _64
REMARK   26  A    between atoms: _63  and  _66
REMARK   27  A    between atoms: _69  and  _71
REMARK   28  A    between atoms: _71  and  _72
REMARK   29  A    between atoms: _71  and  _74
REMARK   30  A    between atoms: _76  and  _78
REMARK   31  A    between atoms: _78  and  _79
REMARK   32  A    between atoms: _82  and  _84
REMARK   33  A    between atoms: _84  and  _85
REMARK   34  A    between atoms: _84  and  _87
REMARK   35  A    between atoms: _87  and  _88
REMARK   36  A    between atoms: _88  and  _89
REMARK   37  A    between atoms: _89  and  _90
REMARK   38  A    between atoms: _99  and  _101
REMARK   39  A    between atoms: _101  and  _102
REMARK   40  A    between atoms: _101  and  _104
REMARK   41  A    between atoms: _107  and  _109
REMARK   42  A    between atoms: _109  and  _110
REMARK   43  A    between atoms: _113  and  _115
REMARK   44  A    between atoms: _115  and  _116
REMARK   45  A    between atoms: _115  and  _118
REMARK   46  A    between atoms: _121  and  _123
REMARK   47  A    between atoms: _123  and  _124
REMARK   48  A    between atoms: _123  and  _126
REMARK   49  A    between atoms: _126  and  _127
REMARK   50  A    between atoms: _127  and  _128
REMARK   51  A    between atoms: _128  and  _129
REMARK   52  A    between atoms: _129  and  _130
REMARK   53  A    between atoms: _134  and  _136
REMARK   54  A    between atoms: _136  and  _137
REMARK   55  A    between atoms: _136  and  _139
REMARK   56  A    between atoms: _139  and  _140
REMARK   57  A    between atoms: _140  and  _141
REMARK   58  A    between atoms: _141  and  _142
REMARK   59  A    between atoms: _142  and  _143
REMARK   60  A    between atoms: _147  and  _149
REMARK   61  A    between atoms: _149  and  _150
REMARK   62  A    between atoms: _149  and  _152
REMARK   63  A    between atoms: _152  and  _153
REMARK   64  A    between atoms: _156  and  _158
REMARK   65  A    between atoms: _158  and  _159
REMARK   66  A    between atoms: _158  and  _161
REMARK   67  A    between atoms: _161  and  _162
REMARK   68  A    between atoms: _162  and  _163
REMARK   69  A    between atoms: _163  and  _164
REMARK   70  A    between atoms: _173  and  _175
REMARK   71  A    between atoms: _175  and  _176
REMARK   72  A    between atoms: _175  and  _178
REMARK   73  A    between atoms: _178  and  _179
REMARK   74  A    between atoms: _179  and  _180
REMARK   75  A    between atoms: _180  and  _181
REMARK   76  A    between atoms: _190  and  _192
REMARK   77  A    between atoms: _192  and  _193
REMARK   78  A    between atoms: _192  and  _195
REMARK   79  A    between atoms: _195  and  _196
REMARK   80  A    between atoms: _196  and  _197
REMARK   81  A    between atoms: _200  and  _202
REMARK   82  A    between atoms: _202  and  _203
REMARK   83  A    between atoms: _202  and  _205
REMARK   84  A    between atoms: _205  and  _206
REMARK   85  A    between atoms: _209  and  _211
REMARK   86  A    between atoms: _211  and  _212
REMARK   87  A    between atoms: _211  and  _214
REMARK   88  A    between atoms: _214  and  _215
REMARK   89  A    between atoms: _218  and  _220
REMARK   90  A    between atoms: _220  and  _221
REMARK   91  A    between atoms: _220  and  _223
REMARK   92  A    between atoms: _223  and  _224
REMARK   93  A    between atoms: _227  and  _229
REMARK   94  A    between atoms: _229  and  _230
REMARK   95  A    between atoms: _229  and  _232
REMARK   96  A    between atoms: _232  and  _233
REMARK   97  A    between atoms: _233  and  _234
REMARK   98  A    between atoms: _236  and  _238
REMARK   99  A    between atoms: _238  and  _239
REMARK  100  A    between atoms: _238  and  _241
REMARK  101  A    between atoms: _241  and  _242
REMARK  102  A    between atoms: _247  and  _249
REMARK  103  A    between atoms: _249  and  _250
REMARK  104  A    between atoms: _249  and  _252
REMARK  105  A    between atoms: _255  and  _257
REMARK  106  A    between atoms: _257  and  _258
REMARK  107  A    between atoms: _257  and  _260
REMARK  108  A    between atoms: _260  and  _261
REMARK  109  A    between atoms: _264  and  _266
REMARK  110  A    between atoms: _266  and  _267
REMARK  111  A    between atoms: _269  and  _271
REMARK  112  A    between atoms: _271  and  _272
REMARK  113  A    between atoms: _271  and  _274
REMARK  114  A    between atoms: _274  and  _275
REMARK  115  A    between atoms: _278  and  _280
REMARK  116  A    between atoms: _280  and  _281
REMARK  117  A    between atoms: _280  and  _283
REMARK  118  A    between atoms: _283  and  _284
REMARK  119  A    between atoms: _287  and  _289
REMARK  120  A    between atoms: _289  and  _290
REMARK  121  A    between atoms: _289  and  _292
REMARK  122  A    between atoms: _292  and  _293
REMARK  123  A    between atoms: _296  and  _298
REMARK  124  A    between atoms: _298  and  _299
REMARK  125  A    between atoms: _298  and  _301
REMARK  126  A    between atoms: _301  and  _302
REMARK  127  A    between atoms: _307  and  _308
REMARK  128  A    between atoms: _310  and  _312
REMARK  129  A    between atoms: _312  and  _313
REMARK  130  A    between atoms: _312  and  _315
REMARK  131  A    between atoms: _315  and  _316
REMARK  132  A    between atoms: _319  and  _321
REMARK  133  A    between atoms: _321  and  _322
REMARK  134  A    between atoms: _321  and  _324
REMARK  135  A    between atoms: _327  and  _329
REMARK  136  A    between atoms: _329  and  _330
REMARK  137  A    between atoms: _329  and  _332
REMARK  138  A    between atoms: _332  and  _333
REMARK  139  A    between atoms: _336  and  _338
REMARK  140  A    between atoms: _338  and  _339
REMARK  141  A    between atoms: _338  and  _341
REMARK  142  A    between atoms: _341  and  _342
REMARK  143  A    between atoms: _347  and  _349
REMARK  144  A    between atoms: _349  and  _350
REMARK  145  A    between atoms: _349  and  _352
REMARK  146  A    between atoms: _352  and  _353
REMARK  147  A    between atoms: _356  and  _358
REMARK  148  A    between atoms: _358  and  _359
REMARK  149  A    between atoms: _358  and  _361
REMARK  150  A    between atoms: _361  and  _362
REMARK  151  A    between atoms: _362  and  _363
REMARK  152  A    between atoms: _365  and  _367
REMARK  153  A    between atoms: _367  and  _368
REMARK  154  A    between atoms: _370  and  _372
REMARK  155  A    between atoms: _372  and  _373
REMARK  156  A    between atoms: _376  and  _378
REMARK  157  A    between atoms: _378  and  _379
REMARK  158  A    between atoms: _378  and  _381
REMARK  159  A    between atoms: _381  and  _382
REMARK  160  A    between atoms: _385  and  _387
REMARK  161  A    between atoms: _387  and  _388
REMARK  162  A    between atoms: _387  and  _390
REMARK  163  A    between atoms: _390  and  _391
REMARK  164  A    between atoms: _396  and  _398
REMARK  165  A    between atoms: _398  and  _399
REMARK  166  A    between atoms: _398  and  _401
REMARK  167  A    between atoms: _401  and  _402
REMARK  168  A    between atoms: _407  and  _409
REMARK  169  A    between atoms: _409  and  _410
REMARK  170  A    between atoms: _412  and  _414
REMARK  171  A    between atoms: _414  and  _415
REMARK  172  A    between atoms: _414  and  _417
REMARK  173  A    between atoms: _417  and  _418
REMARK  174  A    between atoms: _421  and  _423
REMARK  175  A    between atoms: _423  and  _424
REMARK  176  A    between atoms: _423  and  _426
REMARK  177  A    between atoms: _426  and  _427
REMARK  178  A    between atoms: _432  and  _433
REMARK  179  A    between atoms: _435  and  _437
REMARK  180  A    between atoms: _437  and  _438
REMARK  181  A    between atoms: _437  and  _440
REMARK  182  A    between atoms: _440  and  _441
REMARK  183  A    between atoms: _444  and  _446
REMARK  184  A    between atoms: _446  and  _447
REMARK  185  A    between atoms: _446  and  _449
REMARK  186  A    between atoms: _449  and  _450
REMARK  187  A    between atoms: _453  and  _455
REMARK  188  A    between atoms: _455  and  _456
REMARK  189  A    between atoms: _455  and  _458
REMARK  190  A    between atoms: _458  and  _459
REMARK  191  A    between atoms: _462  and  _464
REMARK  192  A    between atoms: _464  and  _465
REMARK  193  A    between atoms: _464  and  _467
REMARK  194  A    between atoms: _467  and  _468
REMARK  195  A    between atoms: _473  and  _475
REMARK  196  A    between atoms: _475  and  _476
REMARK  197  A    between atoms: _475  and  _478
REMARK  198  A    between atoms: _478  and  _479
REMARK  199  A    between atoms: _479  and  _480
REMARK  200  A    between atoms: _480  and  _481
REMARK  201  A    between atoms: _490  and  _492
REMARK  202  A    between atoms: _492  and  _493
REMARK  203  A    between atoms: _492  and  _495
REMARK  204  A    between atoms: _495  and  _496
REMARK  205  A    between atoms: _499  and  _501
REMARK  206  A    between atoms: _501  and  _502
REMARK  207  A    between atoms: _501  and  _504
REMARK  208  A    between atoms: _504  and  _505
REMARK  209  A    between atoms: _508  and  _510
REMARK  210  A    between atoms: _510  and  _511
REMARK  211  A    between atoms: _510  and  _513
REMARK  212  A    between atoms: _513  and  _514
REMARK  213  A    between atoms: _516  and  _518
REMARK  214  A    between atoms: _518  and  _519
REMARK  215  A    between atoms: _518  and  _521
REMARK  216  A    between atoms: _521  and  _522
REMARK  217  A    between atoms: _527  and  _529
REMARK  218  A    between atoms: _529  and  _530
REMARK  219  A    between atoms: _533  and  _535
REMARK  220  A    between atoms: _535  and  _536
REMARK  221  A    between atoms: _535  and  _538
REMARK  222  A    between atoms: _538  and  _539
REMARK  223  A    between atoms: _539  and  _540
REMARK  224  A    between atoms: _540  and  _541
REMARK  225  A    between atoms: _541  and  _542
REMARK  226  A    between atoms: _546  and  _548
REMARK  227  A    between atoms: _548  and  _549
REMARK  228  A    between atoms: _548  and  _551
REMARK  229  A    between atoms: _551  and  _552
REMARK  230  A    between atoms: _555  and  _557
REMARK  231  A    between atoms: _557  and  _558
REMARK  232  A    between atoms: _557  and  _560
REMARK  233  A    between atoms: _560  and  _561
REMARK  234  A    between atoms: _564  and  _566
REMARK  235  A    between atoms: _566  and  _567
REMARK  236  A    between atoms: _566  and  _569
REMARK  237  A    between atoms: _569  and  _570
REMARK  238  A    between atoms: _573  and  _575
REMARK  239  A    between atoms: _575  and  _576
REMARK  240  A    between atoms: _575  and  _578
REMARK  241  A    between atoms: _578  and  _579
REMARK  242  A    between atoms: _585  and  _587
REMARK  243  A    between atoms: _587  and  _588
REMARK  244  A    between atoms: _590  and  _592
REMARK  245  A    between atoms: _592  and  _593
REMARK  246  A    between atoms: _592  and  _595
REMARK  247  A    between atoms: _595  and  _596
REMARK                            x       y       z     vdW  Elec       q    Type
REMARK                         _______ _______ _______ _____ _____    ______ ____
ROOT
ATOM      1  O   HOH     1      -4.734   8.465  23.049  0.00  0.00    +0.000 OA
ENDROOT
TORSDOF 0
REMARK  Name = ../refined-set-2016/2bak/2bak_pocket.pdb
REMARK  247 active torsions:
REMARK  status: ('A' for Active; 'I' for Inactive)
REMARK    1  A    between atoms: _2  and  _3
REMARK    2  A    between atoms: _8  and  _10
REMARK    3  A    between atoms: _10  and  _11
REMARK    4  A    between atoms: _10  and  _13
REMARK    5  A    between atoms: _16  and  _18
REMARK    6  A    between atoms: _18  and  _19
REMARK    7  A    between atoms: _21  and  _23
REMARK    8  A    between atoms: _23  and  _24
REMARK    9  A    between atoms: _23  and  _26
REMARK   10  A    between atoms: _26  and  _27
REMARK   11  A    between atoms: _29  and  _31
REMARK   12  A    between atoms: _31  and  _32
REMARK   13  A    between atoms: _34  and  _36
REMARK   14  A    between atoms: _36  and  _37
REMARK   15  A    between atoms: _36  and  _39
REMARK   16  A    between atoms: _39  and  _40
REMARK   17  A    between atoms: _45  and  _46
REMARK   18  A    between atoms: _48  and  _50
REMARK   19  A    between atoms: _50  and  _51
REMARK   20  A    between atoms: _53  and  _55
REMARK   21  A    between atoms: _55  and  _56
REMARK   22  A    between atoms: _55  and  _58
REMARK   23  A    between atoms: _58  and  _59
REMARK   24  A    between atoms: _61  and  _63
REMARK   25  A    between atoms: _63  and  _64
REMARK   26  A    between atoms: _63  and  _66
REMARK   27  A    between atoms: _69  and  _71
REMARK   28  A    between atoms: _71  and  _72
REMARK   29  A    between atoms: _71  and  _74
REMARK   30  A    between atoms: _76  and  _78
REMARK   31  A    between atoms: _78  and  _79
REMARK   32  A    between atoms: _82  and  _84
REMARK   33  A    between atoms: _84  and  _85
REMARK   34  A    between atoms: _84  and  _87
REMARK   35  A    between atoms: _87  and  _88
REMARK   36  A    between atoms: _88  and  _89
REMARK   37  A    between atoms: _89  and  _90
REMARK   38  A    between atoms: _99  and  _101
REMARK   39  A    between atoms: _101  and  _102
REMARK   40  A    between atoms: _101  and  _104
REMARK   41  A    between atoms: _107  and  _109
REMARK   42  A    between atoms: _109  and  _110
REMARK   43  A    between atoms: _113  and  _115
REMARK   44  A    between atoms: _115  and  _116
REMARK   45  A    between atoms: _115  and  _118
REMARK   46  A    between atoms: _121  and  _123
REMARK   47  A    between atoms: _123  and  _124
REMARK   48  A    between atoms: _123  and  _126
REMARK   49  A    between atoms: _126  and  _127
REMARK   50  A    between atoms: _127  and  _128
REMARK   51  A    between atoms: _128  and  _129
REMARK   52  A    between atoms: _129  and  _130
REMARK   53  A    between atoms: _134  and  _136
REMARK   54  A    between atoms: _136  and  _137
REMARK   55  A    between atoms: _136  and  _139
REMARK   56  A    between atoms: _139  and  _140
REMARK   57  A    between atoms: _140  and  _141
REMARK   58  A    between atoms: _141  and  _142
REMARK   59  A    between atoms: _142  and  _143
REMARK   60  A    between atoms: _147  and  _149
REMARK   61  A    between atoms: _149  and  _150
REMARK   62  A    between atoms: _149  and  _152
REMARK   63  A    between atoms: _152  and  _153
REMARK   64  A    between atoms: _156  and  _158
REMARK   65  A    between atoms: _158  and  _159
REMARK   66  A    between atoms: _158  and  _161
REMARK   67  A    between atoms: _161  and  _162
REMARK   68  A    between atoms: _162  and  _163
REMARK   69  A    between atoms: _163  and  _164
REMARK   70  A    between atoms: _173  and  _175
REMARK   71  A    between atoms: _175  and  _176
REMARK   72  A    between atoms: _175  and  _178
REMARK   73  A    between atoms: _178  and  _179
REMARK   74  A    between atoms: _179  and  _180
REMARK   75  A    between atoms: _180  and  _181
REMARK   76  A    between atoms: _190  and  _192
REMARK   77  A    between atoms: _192  and  _193
REMARK   78  A    between atoms: _192  and  _195
REMARK   79  A    between atoms: _195  and  _196
REMARK   80  A    between atoms: _196  and  _197
REMARK   81  A    between atoms: _200  and  _202
REMARK   82  A    between atoms: _202  and  _203
REMARK   83  A    between atoms: _202  and  _205
REMARK   84  A    between atoms: _205  and  _206
REMARK   85  A    between atoms: _209  and  _211
REMARK   86  A    between atoms: _211  and  _212
REMARK   87  A    between atoms: _211  and  _214
REMARK   88  A    between atoms: _214  and  _215
REMARK   89  A    between atoms: _218  and  _220
REMARK   90  A    between atoms: _220  and  _221
REMARK   91  A    between atoms: _220  and  _223
REMARK   92  A    between atoms: _223  and  _224
REMARK   93  A    between atoms: _227  and  _229
REMARK   94  A    between atoms: _229  and  _230
REMARK   95  A    between atoms: _229  and  _232
REMARK   96  A    between atoms: _232  and  _233
REMARK   97  A    between atoms: _233  and  _234
REMARK   98  A    between atoms: _236  and  _238
REMARK   99  A    between atoms: _238  and  _239
REMARK  100  A    between atoms: _238  and  _241
REMARK  101  A    between atoms: _241  and  _242
REMARK  102  A    between atoms: _247  and  _249
REMARK  103  A    between atoms: _249  and  _250
REMARK  104  A    between atoms: _249  and  _252
REMARK  105  A    between atoms: _255  and  _257
REMARK  106  A    between atoms: _257  and  _258
REMARK  107  A    between atoms: _257  and  _260
REMARK  108  A    between atoms: _260  and  _261
REMARK  109  A    between atoms: _264  and  _266
REMARK  110  A    between atoms: _266  and  _267
REMARK  111  A    between atoms: _269  and  _271
REMARK  112  A    between atoms: _271  and  _272
REMARK  113  A    between atoms: _271  and  _274
REMARK  114  A    between atoms: _274  and  _275
REMARK  115  A    between atoms: _278  and  _280
REMARK  116  A    between atoms: _280  and  _281
REMARK  117  A    between atoms: _280  and  _283
REMARK  118  A    between atoms: _283  and  _284
REMARK  119  A    between atoms: _287  and  _289
REMARK  120  A    between atoms: _289  and  _290
REMARK  121  A    between atoms: _289  and  _292
REMARK  122  A    between atoms: _292  and  _293
REMARK  123  A    between atoms: _296  and  _298
REMARK  124  A    between atoms: _298  and  _299
REMARK  125  A    between atoms: _298  and  _301
REMARK  126  A    between atoms: _301  and  _302
REMARK  127  A    between atoms: _307  and  _308
REMARK  128  A    between atoms: _310  and  _312
REMARK  129  A    between atoms: _312  and  _313
REMARK  130  A    between atoms: _312  and  _315
REMARK  131  A    between atoms: _315  and  _316
REMARK  132  A    between atoms: _319  and  _321
REMARK  133  A    between atoms: _321  and  _322
REMARK  134  A    between atoms: _321  and  _324
REMARK  135  A    between atoms: _327  and  _329
REMARK  136  A    between atoms: _329  and  _330
REMARK  137  A    between atoms: _329  and  _332
REMARK  138  A    between atoms: _332  and  _333
REMARK  139  A    between atoms: _336  and  _338
REMARK  140  A    between atoms: _338  and  _339
REMARK  141  A    between atoms: _338  and  _341
REMARK  142  A    between atoms: _341  and  _342
REMARK  143  A    between atoms: _347  and  _349
REMARK  144  A    between atoms: _349  and  _350
REMARK  145  A    between atoms: _349  and  _352
REMARK  146  A    between atoms: _352  and  _353
REMARK  147  A    between atoms: _356  and  _358
REMARK  148  A    between atoms: _358  and  _359
REMARK  149  A    between atoms: _358  and  _361
REMARK  150  A    between atoms: _361  and  _362
REMARK  151  A    between atoms: _362  and  _363
REMARK  152  A    between atoms: _365  and  _367
REMARK  153  A    between atoms: _367  and  _368
REMARK  154  A    between atoms: _370  and  _372
REMARK  155  A    between atoms: _372  and  _373
REMARK  156  A    between atoms: _376  and  _378
REMARK  157  A    between atoms: _378  and  _379
REMARK  158  A    between atoms: _378  and  _381
REMARK  159  A    between atoms: _381  and  _382
REMARK  160  A    between atoms: _385  and  _387
REMARK  161  A    between atoms: _387  and  _388
REMARK  162  A    between atoms: _387  and  _390
REMARK  163  A    between atoms: _390  and  _391
REMARK  164  A    between atoms: _396  and  _398
REMARK  165  A    between atoms: _398  and  _399
REMARK  166  A    between atoms: _398  and  _401
REMARK  167  A    between atoms: _401  and  _402
REMARK  168  A    between atoms: _407  and  _409
REMARK  169  A    between atoms: _409  and  _410
REMARK  170  A    between atoms: _412  and  _414
REMARK  171  A    between atoms: _414  and  _415
REMARK  172  A    between atoms: _414  and  _417
REMARK  173  A    between atoms: _417  and  _418
REMARK  174  A    between atoms: _421  and  _423
REMARK  175  A    between atoms: _423  and  _424
REMARK  176  A    between atoms: _423  and  _426
REMARK  177  A    between atoms: _426  and  _427
REMARK  178  A    between atoms: _432  and  _433
REMARK  179  A    between atoms: _435  and  _437
REMARK  180  A    between atoms: _437  and  _438
REMARK  181  A    between atoms: _437  and  _440
REMARK  182  A    between atoms: _440  and  _441
REMARK  183  A    between atoms: _444  and  _446
REMARK  184  A    between atoms: _446  and  _447
REMARK  185  A    between atoms: _446  and  _449
REMARK  186  A    between atoms: _449  and  _450
REMARK  187  A    between atoms: _453  and  _455
REMARK  188  A    between atoms: _455  and  _456
REMARK  189  A    between atoms: _455  and  _458
REMARK  190  A    between atoms: _458  and  _459
REMARK  191  A    between atoms: _462  and  _464
REMARK  192  A    between atoms: _464  and  _465
REMARK  193  A    between atoms: _464  and  _467
REMARK  194  A    between atoms: _467  and  _468
REMARK  195  A    between atoms: _473  and  _475
REMARK  196  A    between atoms: _475  and  _476
REMARK  197  A    between atoms: _475  and  _478
REMARK  198  A    between atoms: _478  and  _479
REMARK  199  A    between atoms: _479  and  _480
REMARK  200  A    between atoms: _480  and  _481
REMARK  201  A    between atoms: _490  and  _492
REMARK  202  A    between atoms: _492  and  _493
REMARK  203  A    between atoms: _492  and  _495
REMARK  204  A    between atoms: _495  and  _496
REMARK  205  A    between atoms: _499  and  _501
REMARK  206  A    between atoms: _501  and  _502
REMARK  207  A    between atoms: _501  and  _504
REMARK  208  A    between atoms: _504  and  _505
REMARK  209  A    between atoms: _508  and  _510
REMARK  210  A    between atoms: _510  and  _511
REMARK  211  A    between atoms: _510  and  _513
REMARK  212  A    between atoms: _513  and  _514
REMARK  213  A    between atoms: _516  and  _518
REMARK  214  A    between atoms: _518  and  _519
REMARK  215  A    between atoms: _518  and  _521
REMARK  216  A    between atoms: _521  and  _522
REMARK  217  A    between atoms: _527  and  _529
REMARK  218  A    between atoms: _529  and  _530
REMARK  219  A    between atoms: _533  and  _535
REMARK  220  A    between atoms: _535  and  _536
REMARK  221  A    between atoms: _535  and  _538
REMARK  222  A    between atoms: _538  and  _539
REMARK  223  A    between atoms: _539  and  _540
REMARK  224  A    between atoms: _540  and  _541
REMARK  225  A    between atoms: _541  and  _542
REMARK  226  A    between atoms: _546  and  _548
REMARK  227  A    between atoms: _548  and  _549
REMARK  228  A    between atoms: _548  and  _551
REMARK  229  A    between atoms: _551  and  _552
REMARK  230  A    between atoms: _555  and  _557
REMARK  231  A    between atoms: _557  and  _558
REMARK  232  A    between atoms: _557  and  _560
REMARK  233  A    between atoms: _560  and  _561
REMARK  234  A    between atoms: _564  and  _566
REMARK  235  A    between atoms: _566  and  _567
REMARK  236  A    between atoms: _566  and  _569
REMARK  237  A    between atoms: _569  and  _570
REMARK  238  A    between atoms: _573  and  _575
REMARK  239  A    between atoms: _575  and  _576
REMARK  240  A    between atoms: _575  and  _578
REMARK  241  A    between atoms: _578  and  _579
REMARK  242  A    between atoms: _585  and  _587
REMARK  243  A    between atoms: _587  and  _588
REMARK  244  A    between atoms: _590  and  _592
REMARK  245  A    between atoms: _592  and  _593
REMARK  246  A    between atoms: _592  and  _595
REMARK  247  A    between atoms: _595  and  _596
REMARK                            x       y       z     vdW  Elec       q    Type
REMARK                         _______ _______ _______ _____ _____    ______ ____
ROOT
ATOM      1  O   HOH     1       3.875   5.985  23.666  0.00  0.00    +0.000 OA
ENDROOT
TORSDOF 0
REMARK  Name = ../refined-set-2016/2bak/2bak_pocket.pdb
REMARK  247 active torsions:
REMARK  status: ('A' for Active; 'I' for Inactive)
REMARK    1  A    between atoms: _2  and  _3
REMARK    2  A    between atoms: _8  and  _10
REMARK    3  A    between atoms: _10  and  _11
REMARK    4  A    between atoms: _10  and  _13
REMARK    5  A    between atoms: _16  and  _18
REMARK    6  A    between atoms: _18  and  _19
REMARK    7  A    between atoms: _21  and  _23
REMARK    8  A    between atoms: _23  and  _24
REMARK    9  A    between atoms: _23  and  _26
REMARK   10  A    between atoms: _26  and  _27
REMARK   11  A    between atoms: _29  and  _31
REMARK   12  A    between atoms: _31  and  _32
REMARK   13  A    between atoms: _34  and  _36
REMARK   14  A    between atoms: _36  and  _37
REMARK   15  A    between atoms: _36  and  _39
REMARK   16  A    between atoms: _39  and  _40
REMARK   17  A    between atoms: _45  and  _46
REMARK   18  A    between atoms: _48  and  _50
REMARK   19  A    between atoms: _50  and  _51
REMARK   20  A    between atoms: _53  and  _55
REMARK   21  A    between atoms: _55  and  _56
REMARK   22  A    between atoms: _55  and  _58
REMARK   23  A    between atoms: _58  and  _59
REMARK   24  A    between atoms: _61  and  _63
REMARK   25  A    between atoms: _63  and  _64
REMARK   26  A    between atoms: _63  and  _66
REMARK   27  A    between atoms: _69  and  _71
REMARK   28  A    between atoms: _71  and  _72
REMARK   29  A    between atoms: _71  and  _74
REMARK   30  A    between atoms: _76  and  _78
REMARK   31  A    between atoms: _78  and  _79
REMARK   32  A    between atoms: _82  and  _84
REMARK   33  A    between atoms: _84  and  _85
REMARK   34  A    between atoms: _84  and  _87
REMARK   35  A    between atoms: _87  and  _88
REMARK   36  A    between atoms: _88  and  _89
REMARK   37  A    between atoms: _89  and  _90
REMARK   38  A    between atoms: _99  and  _101
REMARK   39  A    between atoms: _101  and  _102
REMARK   40  A    between atoms: _101  and  _104
REMARK   41  A    between atoms: _107  and  _109
REMARK   42  A    between atoms: _109  and  _110
REMARK   43  A    between atoms: _113  and  _115
REMARK   44  A    between atoms: _115  and  _116
REMARK   45  A    between atoms: _115  and  _118
REMARK   46  A    between atoms: _121  and  _123
REMARK   47  A    between atoms: _123  and  _124
REMARK   48  A    between atoms: _123  and  _126
REMARK   49  A    between atoms: _126  and  _127
REMARK   50  A    between atoms: _127  and  _128
REMARK   51  A    between atoms: _128  and  _129
REMARK   52  A    between atoms: _129  and  _130
REMARK   53  A    between atoms: _134  and  _136
REMARK   54  A    between atoms: _136  and  _137
REMARK   55  A    between atoms: _136  and  _139
REMARK   56  A    between atoms: _139  and  _140
REMARK   57  A    between atoms: _140  and  _141
REMARK   58  A    between atoms: _141  and  _142
REMARK   59  A    between atoms: _142  and  _143
REMARK   60  A    between atoms: _147  and  _149
REMARK   61  A    between atoms: _149  and  _150
REMARK   62  A    between atoms: _149  and  _152
REMARK   63  A    between atoms: _152  and  _153
REMARK   64  A    between atoms: _156  and  _158
REMARK   65  A    between atoms: _158  and  _159
REMARK   66  A    between atoms: _158  and  _161
REMARK   67  A    between atoms: _161  and  _162
REMARK   68  A    between atoms: _162  and  _163
REMARK   69  A    between atoms: _163  and  _164
REMARK   70  A    between atoms: _173  and  _175
REMARK   71  A    between atoms: _175  and  _176
REMARK   72  A    between atoms: _175  and  _178
REMARK   73  A    between atoms: _178  and  _179
REMARK   74  A    between atoms: _179  and  _180
REMARK   75  A    between atoms: _180  and  _181
REMARK   76  A    between atoms: _190  and  _192
REMARK   77  A    between atoms: _192  and  _193
REMARK   78  A    between atoms: _192  and  _195
REMARK   79  A    between atoms: _195  and  _196
REMARK   80  A    between atoms: _196  and  _197
REMARK   81  A    between atoms: _200  and  _202
REMARK   82  A    between atoms: _202  and  _203
REMARK   83  A    between atoms: _202  and  _205
REMARK   84  A    between atoms: _205  and  _206
REMARK   85  A    between atoms: _209  and  _211
REMARK   86  A    between atoms: _211  and  _212
REMARK   87  A    between atoms: _211  and  _214
REMARK   88  A    between atoms: _214  and  _215
REMARK   89  A    between atoms: _218  and  _220
REMARK   90  A    between atoms: _220  and  _221
REMARK   91  A    between atoms: _220  and  _223
REMARK   92  A    between atoms: _223  and  _224
REMARK   93  A    between atoms: _227  and  _229
REMARK   94  A    between atoms: _229  and  _230
REMARK   95  A    between atoms: _229  and  _232
REMARK   96  A    between atoms: _232  and  _233
REMARK   97  A    between atoms: _233  and  _234
REMARK   98  A    between atoms: _236  and  _238
REMARK   99  A    between atoms: _238  and  _239
REMARK  100  A    between atoms: _238  and  _241
REMARK  101  A    between atoms: _241  and  _242
REMARK  102  A    between atoms: _247  and  _249
REMARK  103  A    between atoms: _249  and  _250
REMARK  104  A    between atoms: _249  and  _252
REMARK  105  A    between atoms: _255  and  _257
REMARK  106  A    between atoms: _257  and  _258
REMARK  107  A    between atoms: _257  and  _260
REMARK  108  A    between atoms: _260  and  _261
REMARK  109  A    between atoms: _264  and  _266
REMARK  110  A    between atoms: _266  and  _267
REMARK  111  A    between atoms: _269  and  _271
REMARK  112  A    between atoms: _271  and  _272
REMARK  113  A    between atoms: _271  and  _274
REMARK  114  A    between atoms: _274  and  _275
REMARK  115  A    between atoms: _278  and  _280
REMARK  116  A    between atoms: _280  and  _281
REMARK  117  A    between atoms: _280  and  _283
REMARK  118  A    between atoms: _283  and  _284
REMARK  119  A    between atoms: _287  and  _289
REMARK  120  A    between atoms: _289  and  _290
REMARK  121  A    between atoms: _289  and  _292
REMARK  122  A    between atoms: _292  and  _293
REMARK  123  A    between atoms: _296  and  _298
REMARK  124  A    between atoms: _298  and  _299
REMARK  125  A    between atoms: _298  and  _301
REMARK  126  A    between atoms: _301  and  _302
REMARK  127  A    between atoms: _307  and  _308
REMARK  128  A    between atoms: _310  and  _312
REMARK  129  A    between atoms: _312  and  _313
REMARK  130  A    between atoms: _312  and  _315
REMARK  131  A    between atoms: _315  and  _316
REMARK  132  A    between atoms: _319  and  _321
REMARK  133  A    between atoms: _321  and  _322
REMARK  134  A    between atoms: _321  and  _324
REMARK  135  A    between atoms: _327  and  _329
REMARK  136  A    between atoms: _329  and  _330
REMARK  137  A    between atoms: _329  and  _332
REMARK  138  A    between atoms: _332  and  _333
REMARK  139  A    between atoms: _336  and  _338
REMARK  140  A    between atoms: _338  and  _339
REMARK  141  A    between atoms: _338  and  _341
REMARK  142  A    between atoms: _341  and  _342
REMARK  143  A    between atoms: _347  and  _349
REMARK  144  A    between atoms: _349  and  _350
REMARK  145  A    between atoms: _349  and  _352
REMARK  146  A    between atoms: _352  and  _353
REMARK  147  A    between atoms: _356  and  _358
REMARK  148  A    between atoms: _358  and  _359
REMARK  149  A    between atoms: _358  and  _361
REMARK  150  A    between atoms: _361  and  _362
REMARK  151  A    between atoms: _362  and  _363
REMARK  152  A    between atoms: _365  and  _367
REMARK  153  A    between atoms: _367  and  _368
REMARK  154  A    between atoms: _370  and  _372
REMARK  155  A    between atoms: _372  and  _373
REMARK  156  A    between atoms: _376  and  _378
REMARK  157  A    between atoms: _378  and  _379
REMARK  158  A    between atoms: _378  and  _381
REMARK  159  A    between atoms: _381  and  _382
REMARK  160  A    between atoms: _385  and  _387
REMARK  161  A    between atoms: _387  and  _388
REMARK  162  A    between atoms: _387  and  _390
REMARK  163  A    between atoms: _390  and  _391
REMARK  164  A    between atoms: _396  and  _398
REMARK  165  A    between atoms: _398  and  _399
REMARK  166  A    between atoms: _398  and  _401
REMARK  167  A    between atoms: _401  and  _402
REMARK  168  A    between atoms: _407  and  _409
REMARK  169  A    between atoms: _409  and  _410
REMARK  170  A    between atoms: _412  and  _414
REMARK  171  A    between atoms: _414  and  _415
REMARK  172  A    between atoms: _414  and  _417
REMARK  173  A    between atoms: _417  and  _418
REMARK  174  A    between atoms: _421  and  _423
REMARK  175  A    between atoms: _423  and  _424
REMARK  176  A    between atoms: _423  and  _426
REMARK  177  A    between atoms: _426  and  _427
REMARK  178  A    between atoms: _432  and  _433
REMARK  179  A    between atoms: _435  and  _437
REMARK  180  A    between atoms: _437  and  _438
REMARK  181  A    between atoms: _437  and  _440
REMARK  182  A    between atoms: _440  and  _441
REMARK  183  A    between atoms: _444  and  _446
REMARK  184  A    between atoms: _446  and  _447
REMARK  185  A    between atoms: _446  and  _449
REMARK  186  A    between atoms: _449  and  _450
REMARK  187  A    between atoms: _453  and  _455
REMARK  188  A    between atoms: _455  and  _456
REMARK  189  A    between atoms: _455  and  _458
REMARK  190  A    between atoms: _458  and  _459
REMARK  191  A    between atoms: _462  and  _464
REMARK  192  A    between atoms: _464  and  _465
REMARK  193  A    between atoms: _464  and  _467
REMARK  194  A    between atoms: _467  and  _468
REMARK  195  A    between atoms: _473  and  _475
REMARK  196  A    between atoms: _475  and  _476
REMARK  197  A    between atoms: _475  and  _478
REMARK  198  A    between atoms: _478  and  _479
REMARK  199  A    between atoms: _479  and  _480
REMARK  200  A    between atoms: _480  and  _481
REMARK  201  A    between atoms: _490  and  _492
REMARK  202  A    between atoms: _492  and  _493
REMARK  203  A    between atoms: _492  and  _495
REMARK  204  A    between atoms: _495  and  _496
REMARK  205  A    between atoms: _499  and  _501
REMARK  206  A    between atoms: _501  and  _502
REMARK  207  A    between atoms: _501  and  _504
REMARK  208  A    between atoms: _504  and  _505
REMARK  209  A    between atoms: _508  and  _510
REMARK  210  A    between atoms: _510  and  _511
REMARK  211  A    between atoms: _510  and  _513
REMARK  212  A    between atoms: _513  and  _514
REMARK  213  A    between atoms: _516  and  _518
REMARK  214  A    between atoms: _518  and  _519
REMARK  215  A    between atoms: _518  and  _521
REMARK  216  A    between atoms: _521  and  _522
REMARK  217  A    between atoms: _527  and  _529
REMARK  218  A    between atoms: _529  and  _530
REMARK  219  A    between atoms: _533  and  _535
REMARK  220  A    between atoms: _535  and  _536
REMARK  221  A    between atoms: _535  and  _538
REMARK  222  A    between atoms: _538  and  _539
REMARK  223  A    between atoms: _539  and  _540
REMARK  224  A    between atoms: _540  and  _541
REMARK  225  A    between atoms: _541  and  _542
REMARK  226  A    between atoms: _546  and  _548
REMARK  227  A    between atoms: _548  and  _549
REMARK  228  A    between atoms: _548  and  _551
REMARK  229  A    between atoms: _551  and  _552
REMARK  230  A    between atoms: _555  and  _557
REMARK  231  A    between atoms: _557  and  _558
REMARK  232  A    between atoms: _557  and  _560
REMARK  233  A    between atoms: _560  and  _561
REMARK  234  A    between atoms: _564  and  _566
REMARK  235  A    between atoms: _566  and  _567
REMARK  236  A    between atoms: _566  and  _569
REMARK  237  A    between atoms: _569  and  _570
REMARK  238  A    between atoms: _573  and  _575
REMARK  239  A    between atoms: _575  and  _576
REMARK  240  A    between atoms: _575  and  _578
REMARK  241  A    between atoms: _578  and  _579
REMARK  242  A    between atoms: _585  and  _587
REMARK  243  A    between atoms: _587  and  _588
REMARK  244  A    between atoms: _590  and  _592
REMARK  245  A    between atoms: _592  and  _593
REMARK  246  A    between atoms: _592  and  _595
REMARK  247  A    between atoms: _595  and  _596
REMARK                            x       y       z     vdW  Elec       q    Type
REMARK                         _______ _______ _______ _____ _____    ______ ____
ROOT
ATOM      1  O   HOH     1      -2.833   5.571  18.888  0.00  0.00    +0.000 OA
ENDROOT
TORSDOF 0
REMARK  Name = ../refined-set-2016/2bak/2bak_pocket.pdb
REMARK  247 active torsions:
REMARK  status: ('A' for Active; 'I' for Inactive)
REMARK    1  A    between atoms: _2  and  _3
REMARK    2  A    between atoms: _8  and  _10
REMARK    3  A    between atoms: _10  and  _11
REMARK    4  A    between atoms: _10  and  _13
REMARK    5  A    between atoms: _16  and  _18
REMARK    6  A    between atoms: _18  and  _19
REMARK    7  A    between atoms: _21  and  _23
REMARK    8  A    between atoms: _23  and  _24
REMARK    9  A    between atoms: _23  and  _26
REMARK   10  A    between atoms: _26  and  _27
REMARK   11  A    between atoms: _29  and  _31
REMARK   12  A    between atoms: _31  and  _32
REMARK   13  A    between atoms: _34  and  _36
REMARK   14  A    between atoms: _36  and  _37
REMARK   15  A    between atoms: _36  and  _39
REMARK   16  A    between atoms: _39  and  _40
REMARK   17  A    between atoms: _45  and  _46
REMARK   18  A    between atoms: _48  and  _50
REMARK   19  A    between atoms: _50  and  _51
REMARK   20  A    between atoms: _53  and  _55
REMARK   21  A    between atoms: _55  and  _56
REMARK   22  A    between atoms: _55  and  _58
REMARK   23  A    between atoms: _58  and  _59
REMARK   24  A    between atoms: _61  and  _63
REMARK   25  A    between atoms: _63  and  _64
REMARK   26  A    between atoms: _63  and  _66
REMARK   27  A    between atoms: _69  and  _71
REMARK   28  A    between atoms: _71  and  _72
REMARK   29  A    between atoms: _71  and  _74
REMARK   30  A    between atoms: _76  and  _78
REMARK   31  A    between atoms: _78  and  _79
REMARK   32  A    between atoms: _82  and  _84
REMARK   33  A    between atoms: _84  and  _85
REMARK   34  A    between atoms: _84  and  _87
REMARK   35  A    between atoms: _87  and  _88
REMARK   36  A    between atoms: _88  and  _89
REMARK   37  A    between atoms: _89  and  _90
REMARK   38  A    between atoms: _99  and  _101
REMARK   39  A    between atoms: _101  and  _102
REMARK   40  A    between atoms: _101  and  _104
REMARK   41  A    between atoms: _107  and  _109
REMARK   42  A    between atoms: _109  and  _110
REMARK   43  A    between atoms: _113  and  _115
REMARK   44  A    between atoms: _115  and  _116
REMARK   45  A    between atoms: _115  and  _118
REMARK   46  A    between atoms: _121  and  _123
REMARK   47  A    between atoms: _123  and  _124
REMARK   48  A    between atoms: _123  and  _126
REMARK   49  A    between atoms: _126  and  _127
REMARK   50  A    between atoms: _127  and  _128
REMARK   51  A    between atoms: _128  and  _129
REMARK   52  A    between atoms: _129  and  _130
REMARK   53  A    between atoms: _134  and  _136
REMARK   54  A    between atoms: _136  and  _137
REMARK   55  A    between atoms: _136  and  _139
REMARK   56  A    between atoms: _139  and  _140
REMARK   57  A    between atoms: _140  and  _141
REMARK   58  A    between atoms: _141  and  _142
REMARK   59  A    between atoms: _142  and  _143
REMARK   60  A    between atoms: _147  and  _149
REMARK   61  A    between atoms: _149  and  _150
REMARK   62  A    between atoms: _149  and  _152
REMARK   63  A    between atoms: _152  and  _153
REMARK   64  A    between atoms: _156  and  _158
REMARK   65  A    between atoms: _158  and  _159
REMARK   66  A    between atoms: _158  and  _161
REMARK   67  A    between atoms: _161  and  _162
REMARK   68  A    between atoms: _162  and  _163
REMARK   69  A    between atoms: _163  and  _164
REMARK   70  A    between atoms: _173  and  _175
REMARK   71  A    between atoms: _175  and  _176
REMARK   72  A    between atoms: _175  and  _178
REMARK   73  A    between atoms: _178  and  _179
REMARK   74  A    between atoms: _179  and  _180
REMARK   75  A    between atoms: _180  and  _181
REMARK   76  A    between atoms: _190  and  _192
REMARK   77  A    between atoms: _192  and  _193
REMARK   78  A    between atoms: _192  and  _195
REMARK   79  A    between atoms: _195  and  _196
REMARK   80  A    between atoms: _196  and  _197
REMARK   81  A    between atoms: _200  and  _202
REMARK   82  A    between atoms: _202  and  _203
REMARK   83  A    between atoms: _202  and  _205
REMARK   84  A    between atoms: _205  and  _206
REMARK   85  A    between atoms: _209  and  _211
REMARK   86  A    between atoms: _211  and  _212
REMARK   87  A    between atoms: _211  and  _214
REMARK   88  A    between atoms: _214  and  _215
REMARK   89  A    between atoms: _218  and  _220
REMARK   90  A    between atoms: _220  and  _221
REMARK   91  A    between atoms: _220  and  _223
REMARK   92  A    between atoms: _223  and  _224
REMARK   93  A    between atoms: _227  and  _229
REMARK   94  A    between atoms: _229  and  _230
REMARK   95  A    between atoms: _229  and  _232
REMARK   96  A    between atoms: _232  and  _233
REMARK   97  A    between atoms: _233  and  _234
REMARK   98  A    between atoms: _236  and  _238
REMARK   99  A    between atoms: _238  and  _239
REMARK  100  A    between atoms: _238  and  _241
REMARK  101  A    between atoms: _241  and  _242
REMARK  102  A    between atoms: _247  and  _249
REMARK  103  A    between atoms: _249  and  _250
REMARK  104  A    between atoms: _249  and  _252
REMARK  105  A    between atoms: _255  and  _257
REMARK  106  A    between atoms: _257  and  _258
REMARK  107  A    between atoms: _257  and  _260
REMARK  108  A    between atoms: _260  and  _261
REMARK  109  A    between atoms: _264  and  _266
REMARK  110  A    between atoms: _266  and  _267
REMARK  111  A    between atoms: _269  and  _271
REMARK  112  A    between atoms: _271  and  _272
REMARK  113  A    between atoms: _271  and  _274
REMARK  114  A    between atoms: _274  and  _275
REMARK  115  A    between atoms: _278  and  _280
REMARK  116  A    between atoms: _280  and  _281
REMARK  117  A    between atoms: _280  and  _283
REMARK  118  A    between atoms: _283  and  _284
REMARK  119  A    between atoms: _287  and  _289
REMARK  120  A    between atoms: _289  and  _290
REMARK  121  A    between atoms: _289  and  _292
REMARK  122  A    between atoms: _292  and  _293
REMARK  123  A    between atoms: _296  and  _298
REMARK  124  A    between atoms: _298  and  _299
REMARK  125  A    between atoms: _298  and  _301
REMARK  126  A    between atoms: _301  and  _302
REMARK  127  A    between atoms: _307  and  _308
REMARK  128  A    between atoms: _310  and  _312
REMARK  129  A    between atoms: _312  and  _313
REMARK  130  A    between atoms: _312  and  _315
REMARK  131  A    between atoms: _315  and  _316
REMARK  132  A    between atoms: _319  and  _321
REMARK  133  A    between atoms: _321  and  _322
REMARK  134  A    between atoms: _321  and  _324
REMARK  135  A    between atoms: _327  and  _329
REMARK  136  A    between atoms: _329  and  _330
REMARK  137  A    between atoms: _329  and  _332
REMARK  138  A    between atoms: _332  and  _333
REMARK  139  A    between atoms: _336  and  _338
REMARK  140  A    between atoms: _338  and  _339
REMARK  141  A    between atoms: _338  and  _341
REMARK  142  A    between atoms: _341  and  _342
REMARK  143  A    between atoms: _347  and  _349
REMARK  144  A    between atoms: _349  and  _350
REMARK  145  A    between atoms: _349  and  _352
REMARK  146  A    between atoms: _352  and  _353
REMARK  147  A    between atoms: _356  and  _358
REMARK  148  A    between atoms: _358  and  _359
REMARK  149  A    between atoms: _358  and  _361
REMARK  150  A    between atoms: _361  and  _362
REMARK  151  A    between atoms: _362  and  _363
REMARK  152  A    between atoms: _365  and  _367
REMARK  153  A    between atoms: _367  and  _368
REMARK  154  A    between atoms: _370  and  _372
REMARK  155  A    between atoms: _372  and  _373
REMARK  156  A    between atoms: _376  and  _378
REMARK  157  A    between atoms: _378  and  _379
REMARK  158  A    between atoms: _378  and  _381
REMARK  159  A    between atoms: _381  and  _382
REMARK  160  A    between atoms: _385  and  _387
REMARK  161  A    between atoms: _387  and  _388
REMARK  162  A    between atoms: _387  and  _390
REMARK  163  A    between atoms: _390  and  _391
REMARK  164  A    between atoms: _396  and  _398
REMARK  165  A    between atoms: _398  and  _399
REMARK  166  A    between atoms: _398  and  _401
REMARK  167  A    between atoms: _401  and  _402
REMARK  168  A    between atoms: _407  and  _409
REMARK  169  A    between atoms: _409  and  _410
REMARK  170  A    between atoms: _412  and  _414
REMARK  171  A    between atoms: _414  and  _415
REMARK  172  A    between atoms: _414  and  _417
REMARK  173  A    between atoms: _417  and  _418
REMARK  174  A    between atoms: _421  and  _423
REMARK  175  A    between atoms: _423  and  _424
REMARK  176  A    between atoms: _423  and  _426
REMARK  177  A    between atoms: _426  and  _427
REMARK  178  A    between atoms: _432  and  _433
REMARK  179  A    between atoms: _435  and  _437
REMARK  180  A    between atoms: _437  and  _438
REMARK  181  A    between atoms: _437  and  _440
REMARK  182  A    between atoms: _440  and  _441
REMARK  183  A    between atoms: _444  and  _446
REMARK  184  A    between atoms: _446  and  _447
REMARK  185  A    between atoms: _446  and  _449
REMARK  186  A    between atoms: _449  and  _450
REMARK  187  A    between atoms: _453  and  _455
REMARK  188  A    between atoms: _455  and  _456
REMARK  189  A    between atoms: _455  and  _458
REMARK  190  A    between atoms: _458  and  _459
REMARK  191  A    between atoms: _462  and  _464
REMARK  192  A    between atoms: _464  and  _465
REMARK  193  A    between atoms: _464  and  _467
REMARK  194  A    between atoms: _467  and  _468
REMARK  195  A    between atoms: _473  and  _475
REMARK  196  A    between atoms: _475  and  _476
REMARK  197  A    between atoms: _475  and  _478
REMARK  198  A    between atoms: _478  and  _479
REMARK  199  A    between atoms: _479  and  _480
REMARK  200  A    between atoms: _480  and  _481
REMARK  201  A    between atoms: _490  and  _492
REMARK  202  A    between atoms: _492  and  _493
REMARK  203  A    between atoms: _492  and  _495
REMARK  204  A    between atoms: _495  and  _496
REMARK  205  A    between atoms: _499  and  _501
REMARK  206  A    between atoms: _501  and  _502
REMARK  207  A    between atoms: _501  and  _504
REMARK  208  A    between atoms: _504  and  _505
REMARK  209  A    between atoms: _508  and  _510
REMARK  210  A    between atoms: _510  and  _511
REMARK  211  A    between atoms: _510  and  _513
REMARK  212  A    between atoms: _513  and  _514
REMARK  213  A    between atoms: _516  and  _518
REMARK  214  A    between atoms: _518  and  _519
REMARK  215  A    between atoms: _518  and  _521
REMARK  216  A    between atoms: _521  and  _522
REMARK  217  A    between atoms: _527  and  _529
REMARK  218  A    between atoms: _529  and  _530
REMARK  219  A    between atoms: _533  and  _535
REMARK  220  A    between atoms: _535  and  _536
REMARK  221  A    between atoms: _535  and  _538
REMARK  222  A    between atoms: _538  and  _539
REMARK  223  A    between atoms: _539  and  _540
REMARK  224  A    between atoms: _540  and  _541
REMARK  225  A    between atoms: _541  and  _542
REMARK  226  A    between atoms: _546  and  _548
REMARK  227  A    between atoms: _548  and  _549
REMARK  228  A    between atoms: _548  and  _551
REMARK  229  A    between atoms: _551  and  _552
REMARK  230  A    between atoms: _555  and  _557
REMARK  231  A    between atoms: _557  and  _558
REMARK  232  A    between atoms: _557  and  _560
REMARK  233  A    between atoms: _560  and  _561
REMARK  234  A    between atoms: _564  and  _566
REMARK  235  A    between atoms: _566  and  _567
REMARK  236  A    between atoms: _566  and  _569
REMARK  237  A    between atoms: _569  and  _570
REMARK  238  A    between atoms: _573  and  _575
REMARK  239  A    between atoms: _575  and  _576
REMARK  240  A    between atoms: _575  and  _578
REMARK  241  A    between atoms: _578  and  _579
REMARK  242  A    between atoms: _585  and  _587
REMARK  243  A    between atoms: _587  and  _588
REMARK  244  A    between atoms: _590  and  _592
REMARK  245  A    between atoms: _592  and  _593
REMARK  246  A    between atoms: _592  and  _595
REMARK  247  A    between atoms: _595  and  _596
REMARK                            x       y       z     vdW  Elec       q    Type
REMARK                         _______ _______ _______ _____ _____    ______ ____
ROOT
ATOM      1  O   HOH     1       0.621  -1.031  25.126  0.00  0.00    +0.000 OA
ENDROOT
TORSDOF 0
REMARK  Name = ../refined-set-2016/2bak/2bak_pocket.pdb
REMARK  247 active torsions:
REMARK  status: ('A' for Active; 'I' for Inactive)
REMARK    1  A    between atoms: _2  and  _3
REMARK    2  A    between atoms: _8  and  _10
REMARK    3  A    between atoms: _10  and  _11
REMARK    4  A    between atoms: _10  and  _13
REMARK    5  A    between atoms: _16  and  _18
REMARK    6  A    between atoms: _18  and  _19
REMARK    7  A    between atoms: _21  and  _23
REMARK    8  A    between atoms: _23  and  _24
REMARK    9  A    between atoms: _23  and  _26
REMARK   10  A    between atoms: _26  and  _27
REMARK   11  A    between atoms: _29  and  _31
REMARK   12  A    between atoms: _31  and  _32
REMARK   13  A    between atoms: _34  and  _36
REMARK   14  A    between atoms: _36  and  _37
REMARK   15  A    between atoms: _36  and  _39
REMARK   16  A    between atoms: _39  and  _40
REMARK   17  A    between atoms: _45  and  _46
REMARK   18  A    between atoms: _48  and  _50
REMARK   19  A    between atoms: _50  and  _51
REMARK   20  A    between atoms: _53  and  _55
REMARK   21  A    between atoms: _55  and  _56
REMARK   22  A    between atoms: _55  and  _58
REMARK   23  A    between atoms: _58  and  _59
REMARK   24  A    between atoms: _61  and  _63
REMARK   25  A    between atoms: _63  and  _64
REMARK   26  A    between atoms: _63  and  _66
REMARK   27  A    between atoms: _69  and  _71
REMARK   28  A    between atoms: _71  and  _72
REMARK   29  A    between atoms: _71  and  _74
REMARK   30  A    between atoms: _76  and  _78
REMARK   31  A    between atoms: _78  and  _79
REMARK   32  A    between atoms: _82  and  _84
REMARK   33  A    between atoms: _84  and  _85
REMARK   34  A    between atoms: _84  and  _87
REMARK   35  A    between atoms: _87  and  _88
REMARK   36  A    between atoms: _88  and  _89
REMARK   37  A    between atoms: _89  and  _90
REMARK   38  A    between atoms: _99  and  _101
REMARK   39  A    between atoms: _101  and  _102
REMARK   40  A    between atoms: _101  and  _104
REMARK   41  A    between atoms: _107  and  _109
REMARK   42  A    between atoms: _109  and  _110
REMARK   43  A    between atoms: _113  and  _115
REMARK   44  A    between atoms: _115  and  _116
REMARK   45  A    between atoms: _115  and  _118
REMARK   46  A    between atoms: _121  and  _123
REMARK   47  A    between atoms: _123  and  _124
REMARK   48  A    between atoms: _123  and  _126
REMARK   49  A    between atoms: _126  and  _127
REMARK   50  A    between atoms: _127  and  _128
REMARK   51  A    between atoms: _128  and  _129
REMARK   52  A    between atoms: _129  and  _130
REMARK   53  A    between atoms: _134  and  _136
REMARK   54  A    between atoms: _136  and  _137
REMARK   55  A    between atoms: _136  and  _139
REMARK   56  A    between atoms: _139  and  _140
REMARK   57  A    between atoms: _140  and  _141
REMARK   58  A    between atoms: _141  and  _142
REMARK   59  A    between atoms: _142  and  _143
REMARK   60  A    between atoms: _147  and  _149
REMARK   61  A    between atoms: _149  and  _150
REMARK   62  A    between atoms: _149  and  _152
REMARK   63  A    between atoms: _152  and  _153
REMARK   64  A    between atoms: _156  and  _158
REMARK   65  A    between atoms: _158  and  _159
REMARK   66  A    between atoms: _158  and  _161
REMARK   67  A    between atoms: _161  and  _162
REMARK   68  A    between atoms: _162  and  _163
REMARK   69  A    between atoms: _163  and  _164
REMARK   70  A    between atoms: _173  and  _175
REMARK   71  A    between atoms: _175  and  _176
REMARK   72  A    between atoms: _175  and  _178
REMARK   73  A    between atoms: _178  and  _179
REMARK   74  A    between atoms: _179  and  _180
REMARK   75  A    between atoms: _180  and  _181
REMARK   76  A    between atoms: _190  and  _192
REMARK   77  A    between atoms: _192  and  _193
REMARK   78  A    between atoms: _192  and  _195
REMARK   79  A    between atoms: _195  and  _196
REMARK   80  A    between atoms: _196  and  _197
REMARK   81  A    between atoms: _200  and  _202
REMARK   82  A    between atoms: _202  and  _203
REMARK   83  A    between atoms: _202  and  _205
REMARK   84  A    between atoms: _205  and  _206
REMARK   85  A    between atoms: _209  and  _211
REMARK   86  A    between atoms: _211  and  _212
REMARK   87  A    between atoms: _211  and  _214
REMARK   88  A    between atoms: _214  and  _215
REMARK   89  A    between atoms: _218  and  _220
REMARK   90  A    between atoms: _220  and  _221
REMARK   91  A    between atoms: _220  and  _223
REMARK   92  A    between atoms: _223  and  _224
REMARK   93  A    between atoms: _227  and  _229
REMARK   94  A    between atoms: _229  and  _230
REMARK   95  A    between atoms: _229  and  _232
REMARK   96  A    between atoms: _232  and  _233
REMARK   97  A    between atoms: _233  and  _234
REMARK   98  A    between atoms: _236  and  _238
REMARK   99  A    between atoms: _238  and  _239
REMARK  100  A    between atoms: _238  and  _241
REMARK  101  A    between atoms: _241  and  _242
REMARK  102  A    between atoms: _247  and  _249
REMARK  103  A    between atoms: _249  and  _250
REMARK  104  A    between atoms: _249  and  _252
REMARK  105  A    between atoms: _255  and  _257
REMARK  106  A    between atoms: _257  and  _258
REMARK  107  A    between atoms: _257  and  _260
REMARK  108  A    between atoms: _260  and  _261
REMARK  109  A    between atoms: _264  and  _266
REMARK  110  A    between atoms: _266  and  _267
REMARK  111  A    between atoms: _269  and  _271
REMARK  112  A    between atoms: _271  and  _272
REMARK  113  A    between atoms: _271  and  _274
REMARK  114  A    between atoms: _274  and  _275
REMARK  115  A    between atoms: _278  and  _280
REMARK  116  A    between atoms: _280  and  _281
REMARK  117  A    between atoms: _280  and  _283
REMARK  118  A    between atoms: _283  and  _284
REMARK  119  A    between atoms: _287  and  _289
REMARK  120  A    between atoms: _289  and  _290
REMARK  121  A    between atoms: _289  and  _292
REMARK  122  A    between atoms: _292  and  _293
REMARK  123  A    between atoms: _296  and  _298
REMARK  124  A    between atoms: _298  and  _299
REMARK  125  A    between atoms: _298  and  _301
REMARK  126  A    between atoms: _301  and  _302
REMARK  127  A    between atoms: _307  and  _308
REMARK  128  A    between atoms: _310  and  _312
REMARK  129  A    between atoms: _312  and  _313
REMARK  130  A    between atoms: _312  and  _315
REMARK  131  A    between atoms: _315  and  _316
REMARK  132  A    between atoms: _319  and  _321
REMARK  133  A    between atoms: _321  and  _322
REMARK  134  A    between atoms: _321  and  _324
REMARK  135  A    between atoms: _327  and  _329
REMARK  136  A    between atoms: _329  and  _330
REMARK  137  A    between atoms: _329  and  _332
REMARK  138  A    between atoms: _332  and  _333
REMARK  139  A    between atoms: _336  and  _338
REMARK  140  A    between atoms: _338  and  _339
REMARK  141  A    between atoms: _338  and  _341
REMARK  142  A    between atoms: _341  and  _342
REMARK  143  A    between atoms: _347  and  _349
REMARK  144  A    between atoms: _349  and  _350
REMARK  145  A    between atoms: _349  and  _352
REMARK  146  A    between atoms: _352  and  _353
REMARK  147  A    between atoms: _356  and  _358
REMARK  148  A    between atoms: _358  and  _359
REMARK  149  A    between atoms: _358  and  _361
REMARK  150  A    between atoms: _361  and  _362
REMARK  151  A    between atoms: _362  and  _363
REMARK  152  A    between atoms: _365  and  _367
REMARK  153  A    between atoms: _367  and  _368
REMARK  154  A    between atoms: _370  and  _372
REMARK  155  A    between atoms: _372  and  _373
REMARK  156  A    between atoms: _376  and  _378
REMARK  157  A    between atoms: _378  and  _379
REMARK  158  A    between atoms: _378  and  _381
REMARK  159  A    between atoms: _381  and  _382
REMARK  160  A    between atoms: _385  and  _387
REMARK  161  A    between atoms: _387  and  _388
REMARK  162  A    between atoms: _387  and  _390
REMARK  163  A    between atoms: _390  and  _391
REMARK  164  A    between atoms: _396  and  _398
REMARK  165  A    between atoms: _398  and  _399
REMARK  166  A    between atoms: _398  and  _401
REMARK  167  A    between atoms: _401  and  _402
REMARK  168  A    between atoms: _407  and  _409
REMARK  169  A    between atoms: _409  and  _410
REMARK  170  A    between atoms: _412  and  _414
REMARK  171  A    between atoms: _414  and  _415
REMARK  172  A    between atoms: _414  and  _417
REMARK  173  A    between atoms: _417  and  _418
REMARK  174  A    between atoms: _421  and  _423
REMARK  175  A    between atoms: _423  and  _424
REMARK  176  A    between atoms: _423  and  _426
REMARK  177  A    between atoms: _426  and  _427
REMARK  178  A    between atoms: _432  and  _433
REMARK  179  A    between atoms: _435  and  _437
REMARK  180  A    between atoms: _437  and  _438
REMARK  181  A    between atoms: _437  and  _440
REMARK  182  A    between atoms: _440  and  _441
REMARK  183  A    between atoms: _444  and  _446
REMARK  184  A    between atoms: _446  and  _447
REMARK  185  A    between atoms: _446  and  _449
REMARK  186  A    between atoms: _449  and  _450
REMARK  187  A    between atoms: _453  and  _455
REMARK  188  A    between atoms: _455  and  _456
REMARK  189  A    between atoms: _455  and  _458
REMARK  190  A    between atoms: _458  and  _459
REMARK  191  A    between atoms: _462  and  _464
REMARK  192  A    between atoms: _464  and  _465
REMARK  193  A    between atoms: _464  and  _467
REMARK  194  A    between atoms: _467  and  _468
REMARK  195  A    between atoms: _473  and  _475
REMARK  196  A    between atoms: _475  and  _476
REMARK  197  A    between atoms: _475  and  _478
REMARK  198  A    between atoms: _478  and  _479
REMARK  199  A    between atoms: _479  and  _480
REMARK  200  A    between atoms: _480  and  _481
REMARK  201  A    between atoms: _490  and  _492
REMARK  202  A    between atoms: _492  and  _493
REMARK  203  A    between atoms: _492  and  _495
REMARK  204  A    between atoms: _495  and  _496
REMARK  205  A    between atoms: _499  and  _501
REMARK  206  A    between atoms: _501  and  _502
REMARK  207  A    between atoms: _501  and  _504
REMARK  208  A    between atoms: _504  and  _505
REMARK  209  A    between atoms: _508  and  _510
REMARK  210  A    between atoms: _510  and  _511
REMARK  211  A    between atoms: _510  and  _513
REMARK  212  A    between atoms: _513  and  _514
REMARK  213  A    between atoms: _516  and  _518
REMARK  214  A    between atoms: _518  and  _519
REMARK  215  A    between atoms: _518  and  _521
REMARK  216  A    between atoms: _521  and  _522
REMARK  217  A    between atoms: _527  and  _529
REMARK  218  A    between atoms: _529  and  _530
REMARK  219  A    between atoms: _533  and  _535
REMARK  220  A    between atoms: _535  and  _536
REMARK  221  A    between atoms: _535  and  _538
REMARK  222  A    between atoms: _538  and  _539
REMARK  223  A    between atoms: _539  and  _540
REMARK  224  A    between atoms: _540  and  _541
REMARK  225  A    between atoms: _541  and  _542
REMARK  226  A    between atoms: _546  and  _548
REMARK  227  A    between atoms: _548  and  _549
REMARK  228  A    between atoms: _548  and  _551
REMARK  229  A    between atoms: _551  and  _552
REMARK  230  A    between atoms: _555  and  _557
REMARK  231  A    between atoms: _557  and  _558
REMARK  232  A    between atoms: _557  and  _560
REMARK  233  A    between atoms: _560  and  _561
REMARK  234  A    between atoms: _564  and  _566
REMARK  235  A    between atoms: _566  and  _567
REMARK  236  A    between atoms: _566  and  _569
REMARK  237  A    between atoms: _569  and  _570
REMARK  238  A    between atoms: _573  and  _575
REMARK  239  A    between atoms: _575  and  _576
REMARK  240  A    between atoms: _575  and  _578
REMARK  241  A    between atoms: _578  and  _579
REMARK  242  A    between atoms: _585  and  _587
REMARK  243  A    between atoms: _587  and  _588
REMARK  244  A    between atoms: _590  and  _592
REMARK  245  A    between atoms: _592  and  _593
REMARK  246  A    between atoms: _592  and  _595
REMARK  247  A    between atoms: _595  and  _596
REMARK                            x       y       z     vdW  Elec       q    Type
REMARK                         _______ _______ _______ _____ _____    ______ ____
ROOT
ATOM      1  O   HOH     1      -7.027   3.415  33.415  0.00  0.00    +0.000 OA
ENDROOT
TORSDOF 0
REMARK  Name = ../refined-set-2016/2bak/2bak_pocket.pdb
REMARK  247 active torsions:
REMARK  status: ('A' for Active; 'I' for Inactive)
REMARK    1  A    between atoms: _2  and  _3
REMARK    2  A    between atoms: _8  and  _10
REMARK    3  A    between atoms: _10  and  _11
REMARK    4  A    between atoms: _10  and  _13
REMARK    5  A    between atoms: _16  and  _18
REMARK    6  A    between atoms: _18  and  _19
REMARK    7  A    between atoms: _21  and  _23
REMARK    8  A    between atoms: _23  and  _24
REMARK    9  A    between atoms: _23  and  _26
REMARK   10  A    between atoms: _26  and  _27
REMARK   11  A    between atoms: _29  and  _31
REMARK   12  A    between atoms: _31  and  _32
REMARK   13  A    between atoms: _34  and  _36
REMARK   14  A    between atoms: _36  and  _37
REMARK   15  A    between atoms: _36  and  _39
REMARK   16  A    between atoms: _39  and  _40
REMARK   17  A    between atoms: _45  and  _46
REMARK   18  A    between atoms: _48  and  _50
REMARK   19  A    between atoms: _50  and  _51
REMARK   20  A    between atoms: _53  and  _55
REMARK   21  A    between atoms: _55  and  _56
REMARK   22  A    between atoms: _55  and  _58
REMARK   23  A    between atoms: _58  and  _59
REMARK   24  A    between atoms: _61  and  _63
REMARK   25  A    between atoms: _63  and  _64
REMARK   26  A    between atoms: _63  and  _66
REMARK   27  A    between atoms: _69  and  _71
REMARK   28  A    between atoms: _71  and  _72
REMARK   29  A    between atoms: _71  and  _74
REMARK   30  A    between atoms: _76  and  _78
REMARK   31  A    between atoms: _78  and  _79
REMARK   32  A    between atoms: _82  and  _84
REMARK   33  A    between atoms: _84  and  _85
REMARK   34  A    between atoms: _84  and  _87
REMARK   35  A    between atoms: _87  and  _88
REMARK   36  A    between atoms: _88  and  _89
REMARK   37  A    between atoms: _89  and  _90
REMARK   38  A    between atoms: _99  and  _101
REMARK   39  A    between atoms: _101  and  _102
REMARK   40  A    between atoms: _101  and  _104
REMARK   41  A    between atoms: _107  and  _109
REMARK   42  A    between atoms: _109  and  _110
REMARK   43  A    between atoms: _113  and  _115
REMARK   44  A    between atoms: _115  and  _116
REMARK   45  A    between atoms: _115  and  _118
REMARK   46  A    between atoms: _121  and  _123
REMARK   47  A    between atoms: _123  and  _124
REMARK   48  A    between atoms: _123  and  _126
REMARK   49  A    between atoms: _126  and  _127
REMARK   50  A    between atoms: _127  and  _128
REMARK   51  A    between atoms: _128  and  _129
REMARK   52  A    between atoms: _129  and  _130
REMARK   53  A    between atoms: _134  and  _136
REMARK   54  A    between atoms: _136  and  _137
REMARK   55  A    between atoms: _136  and  _139
REMARK   56  A    between atoms: _139  and  _140
REMARK   57  A    between atoms: _140  and  _141
REMARK   58  A    between atoms: _141  and  _142
REMARK   59  A    between atoms: _142  and  _143
REMARK   60  A    between atoms: _147  and  _149
REMARK   61  A    between atoms: _149  and  _150
REMARK   62  A    between atoms: _149  and  _152
REMARK   63  A    between atoms: _152  and  _153
REMARK   64  A    between atoms: _156  and  _158
REMARK   65  A    between atoms: _158  and  _159
REMARK   66  A    between atoms: _158  and  _161
REMARK   67  A    between atoms: _161  and  _162
REMARK   68  A    between atoms: _162  and  _163
REMARK   69  A    between atoms: _163  and  _164
REMARK   70  A    between atoms: _173  and  _175
REMARK   71  A    between atoms: _175  and  _176
REMARK   72  A    between atoms: _175  and  _178
REMARK   73  A    between atoms: _178  and  _179
REMARK   74  A    between atoms: _179  and  _180
REMARK   75  A    between atoms: _180  and  _181
REMARK   76  A    between atoms: _190  and  _192
REMARK   77  A    between atoms: _192  and  _193
REMARK   78  A    between atoms: _192  and  _195
REMARK   79  A    between atoms: _195  and  _196
REMARK   80  A    between atoms: _196  and  _197
REMARK   81  A    between atoms: _200  and  _202
REMARK   82  A    between atoms: _202  and  _203
REMARK   83  A    between atoms: _202  and  _205
REMARK   84  A    between atoms: _205  and  _206
REMARK   85  A    between atoms: _209  and  _211
REMARK   86  A    between atoms: _211  and  _212
REMARK   87  A    between atoms: _211  and  _214
REMARK   88  A    between atoms: _214  and  _215
REMARK   89  A    between atoms: _218  and  _220
REMARK   90  A    between atoms: _220  and  _221
REMARK   91  A    between atoms: _220  and  _223
REMARK   92  A    between atoms: _223  and  _224
REMARK   93  A    between atoms: _227  and  _229
REMARK   94  A    between atoms: _229  and  _230
REMARK   95  A    between atoms: _229  and  _232
REMARK   96  A    between atoms: _232  and  _233
REMARK   97  A    between atoms: _233  and  _234
REMARK   98  A    between atoms: _236  and  _238
REMARK   99  A    between atoms: _238  and  _239
REMARK  100  A    between atoms: _238  and  _241
REMARK  101  A    between atoms: _241  and  _242
REMARK  102  A    between atoms: _247  and  _249
REMARK  103  A    between atoms: _249  and  _250
REMARK  104  A    between atoms: _249  and  _252
REMARK  105  A    between atoms: _255  and  _257
REMARK  106  A    between atoms: _257  and  _258
REMARK  107  A    between atoms: _257  and  _260
REMARK  108  A    between atoms: _260  and  _261
REMARK  109  A    between atoms: _264  and  _266
REMARK  110  A    between atoms: _266  and  _267
REMARK  111  A    between atoms: _269  and  _271
REMARK  112  A    between atoms: _271  and  _272
REMARK  113  A    between atoms: _271  and  _274
REMARK  114  A    between atoms: _274  and  _275
REMARK  115  A    between atoms: _278  and  _280
REMARK  116  A    between atoms: _280  and  _281
REMARK  117  A    between atoms: _280  and  _283
REMARK  118  A    between atoms: _283  and  _284
REMARK  119  A    between atoms: _287  and  _289
REMARK  120  A    between atoms: _289  and  _290
REMARK  121  A    between atoms: _289  and  _292
REMARK  122  A    between atoms: _292  and  _293
REMARK  123  A    between atoms: _296  and  _298
REMARK  124  A    between atoms: _298  and  _299
REMARK  125  A    between atoms: _298  and  _301
REMARK  126  A    between atoms: _301  and  _302
REMARK  127  A    between atoms: _307  and  _308
REMARK  128  A    between atoms: _310  and  _312
REMARK  129  A    between atoms: _312  and  _313
REMARK  130  A    between atoms: _312  and  _315
REMARK  131  A    between atoms: _315  and  _316
REMARK  132  A    between atoms: _319  and  _321
REMARK  133  A    between atoms: _321  and  _322
REMARK  134  A    between atoms: _321  and  _324
REMARK  135  A    between atoms: _327  and  _329
REMARK  136  A    between atoms: _329  and  _330
REMARK  137  A    between atoms: _329  and  _332
REMARK  138  A    between atoms: _332  and  _333
REMARK  139  A    between atoms: _336  and  _338
REMARK  140  A    between atoms: _338  and  _339
REMARK  141  A    between atoms: _338  and  _341
REMARK  142  A    between atoms: _341  and  _342
REMARK  143  A    between atoms: _347  and  _349
REMARK  144  A    between atoms: _349  and  _350
REMARK  145  A    between atoms: _349  and  _352
REMARK  146  A    between atoms: _352  and  _353
REMARK  147  A    between atoms: _356  and  _358
REMARK  148  A    between atoms: _358  and  _359
REMARK  149  A    between atoms: _358  and  _361
REMARK  150  A    between atoms: _361  and  _362
REMARK  151  A    between atoms: _362  and  _363
REMARK  152  A    between atoms: _365  and  _367
REMARK  153  A    between atoms: _367  and  _368
REMARK  154  A    between atoms: _370  and  _372
REMARK  155  A    between atoms: _372  and  _373
REMARK  156  A    between atoms: _376  and  _378
REMARK  157  A    between atoms: _378  and  _379
REMARK  158  A    between atoms: _378  and  _381
REMARK  159  A    between atoms: _381  and  _382
REMARK  160  A    between atoms: _385  and  _387
REMARK  161  A    between atoms: _387  and  _388
REMARK  162  A    between atoms: _387  and  _390
REMARK  163  A    between atoms: _390  and  _391
REMARK  164  A    between atoms: _396  and  _398
REMARK  165  A    between atoms: _398  and  _399
REMARK  166  A    between atoms: _398  and  _401
REMARK  167  A    between atoms: _401  and  _402
REMARK  168  A    between atoms: _407  and  _409
REMARK  169  A    between atoms: _409  and  _410
REMARK  170  A    between atoms: _412  and  _414
REMARK  171  A    between atoms: _414  and  _415
REMARK  172  A    between atoms: _414  and  _417
REMARK  173  A    between atoms: _417  and  _418
REMARK  174  A    between atoms: _421  and  _423
REMARK  175  A    between atoms: _423  and  _424
REMARK  176  A    between atoms: _423  and  _426
REMARK  177  A    between atoms: _426  and  _427
REMARK  178  A    between atoms: _432  and  _433
REMARK  179  A    between atoms: _435  and  _437
REMARK  180  A    between atoms: _437  and  _438
REMARK  181  A    between atoms: _437  and  _440
REMARK  182  A    between atoms: _440  and  _441
REMARK  183  A    between atoms: _444  and  _446
REMARK  184  A    between atoms: _446  and  _447
REMARK  185  A    between atoms: _446  and  _449
REMARK  186  A    between atoms: _449  and  _450
REMARK  187  A    between atoms: _453  and  _455
REMARK  188  A    between atoms: _455  and  _456
REMARK  189  A    between atoms: _455  and  _458
REMARK  190  A    between atoms: _458  and  _459
REMARK  191  A    between atoms: _462  and  _464
REMARK  192  A    between atoms: _464  and  _465
REMARK  193  A    between atoms: _464  and  _467
REMARK  194  A    between atoms: _467  and  _468
REMARK  195  A    between atoms: _473  and  _475
REMARK  196  A    between atoms: _475  and  _476
REMARK  197  A    between atoms: _475  and  _478
REMARK  198  A    between atoms: _478  and  _479
REMARK  199  A    between atoms: _479  and  _480
REMARK  200  A    between atoms: _480  and  _481
REMARK  201  A    between atoms: _490  and  _492
REMARK  202  A    between atoms: _492  and  _493
REMARK  203  A    between atoms: _492  and  _495
REMARK  204  A    between atoms: _495  and  _496
REMARK  205  A    between atoms: _499  and  _501
REMARK  206  A    between atoms: _501  and  _502
REMARK  207  A    between atoms: _501  and  _504
REMARK  208  A    between atoms: _504  and  _505
REMARK  209  A    between atoms: _508  and  _510
REMARK  210  A    between atoms: _510  and  _511
REMARK  211  A    between atoms: _510  and  _513
REMARK  212  A    between atoms: _513  and  _514
REMARK  213  A    between atoms: _516  and  _518
REMARK  214  A    between atoms: _518  and  _519
REMARK  215  A    between atoms: _518  and  _521
REMARK  216  A    between atoms: _521  and  _522
REMARK  217  A    between atoms: _527  and  _529
REMARK  218  A    between atoms: _529  and  _530
REMARK  219  A    between atoms: _533  and  _535
REMARK  220  A    between atoms: _535  and  _536
REMARK  221  A    between atoms: _535  and  _538
REMARK  222  A    between atoms: _538  and  _539
REMARK  223  A    between atoms: _539  and  _540
REMARK  224  A    between atoms: _540  and  _541
REMARK  225  A    between atoms: _541  and  _542
REMARK  226  A    between atoms: _546  and  _548
REMARK  227  A    between atoms: _548  and  _549
REMARK  228  A    between atoms: _548  and  _551
REMARK  229  A    between atoms: _551  and  _552
REMARK  230  A    between atoms: _555  and  _557
REMARK  231  A    between atoms: _557  and  _558
REMARK  232  A    between atoms: _557  and  _560
REMARK  233  A    between atoms: _560  and  _561
REMARK  234  A    between atoms: _564  and  _566
REMARK  235  A    between atoms: _566  and  _567
REMARK  236  A    between atoms: _566  and  _569
REMARK  237  A    between atoms: _569  and  _570
REMARK  238  A    between atoms: _573  and  _575
REMARK  239  A    between atoms: _575  and  _576
REMARK  240  A    between atoms: _575  and  _578
REMARK  241  A    between atoms: _578  and  _579
REMARK  242  A    between atoms: _585  and  _587
REMARK  243  A    between atoms: _587  and  _588
REMARK  244  A    between atoms: _590  and  _592
REMARK  245  A    between atoms: _592  and  _593
REMARK  246  A    between atoms: _592  and  _595
REMARK  247  A    between atoms: _595  and  _596
REMARK                            x       y       z     vdW  Elec       q    Type
REMARK                         _______ _______ _______ _____ _____    ______ ____
ROOT
ATOM      1  O   HOH     1      -1.183   8.890  17.387  0.00  0.00    +0.000 OA
ENDROOT
TORSDOF 0
