REMARK  Name = ../refined-set-2016/4b1j/4b1j_pocket.pdb
REMARK  221 active torsions:
REMARK  status: ('A' for Active; 'I' for Inactive)
REMARK    1  A    between atoms: _1  and  _3
REMARK    2  A    between atoms: _3  and  _4
REMARK    3  A    between atoms: _3  and  _6
REMARK    4  A    between atoms: _6  and  _7
REMARK    5  A    between atoms: _7  and  _8
REMARK    6  A    between atoms: _11  and  _13
REMARK    7  A    between atoms: _13  and  _14
REMARK    8  A    between atoms: _16  and  _18
REMARK    9  A    between atoms: _18  and  _19
REMARK   10  A    between atoms: _18  and  _21
REMARK   11  A    between atoms: _21  and  _22
REMARK   12  A    between atoms: _25  and  _27
REMARK   13  A    between atoms: _27  and  _28
REMARK   14  A    between atoms: _27  and  _30
REMARK   15  A    between atoms: _30  and  _31
REMARK   16  A    between atoms: _34  and  _36
REMARK   17  A    between atoms: _36  and  _37
REMARK   18  A    between atoms: _36  and  _39
REMARK   19  A    between atoms: _39  and  _40
REMARK   20  A    between atoms: _40  and  _41
REMARK   21  A    between atoms: _44  and  _46
REMARK   22  A    between atoms: _46  and  _47
REMARK   23  A    between atoms: _46  and  _49
REMARK   24  A    between atoms: _49  and  _50
REMARK   25  A    between atoms: _50  and  _51
REMARK   26  A    between atoms: _54  and  _56
REMARK   27  A    between atoms: _56  and  _57
REMARK   28  A    between atoms: _56  and  _59
REMARK   29  A    between atoms: _59  and  _60
REMARK   30  A    between atoms: _65  and  _67
REMARK   31  A    between atoms: _67  and  _68
REMARK   32  A    between atoms: _67  and  _70
REMARK   33  A    between atoms: _73  and  _75
REMARK   34  A    between atoms: _75  and  _76
REMARK   35  A    between atoms: _75  and  _78
REMARK   36  A    between atoms: _78  and  _79
REMARK   37  A    between atoms: _82  and  _84
REMARK   38  A    between atoms: _84  and  _85
REMARK   39  A    between atoms: _84  and  _87
REMARK   40  A    between atoms: _87  and  _88
REMARK   41  A    between atoms: _94  and  _96
REMARK   42  A    between atoms: _96  and  _97
REMARK   43  A    between atoms: _100  and  _102
REMARK   44  A    between atoms: _102  and  _103
REMARK   45  A    between atoms: _102  and  _105
REMARK   46  A    between atoms: _105  and  _106
REMARK   47  A    between atoms: _111  and  _113
REMARK   48  A    between atoms: _113  and  _114
REMARK   49  A    between atoms: _113  and  _116
REMARK   50  A    between atoms: _116  and  _117
REMARK   51  A    between atoms: _117  and  _118
REMARK   52  A    between atoms: _118  and  _119
REMARK   53  A    between atoms: _128  and  _130
REMARK   54  A    between atoms: _130  and  _131
REMARK   55  A    between atoms: _130  and  _133
REMARK   56  A    between atoms: _133  and  _134
REMARK   57  A    between atoms: _140  and  _142
REMARK   58  A    between atoms: _142  and  _143
REMARK   59  A    between atoms: _142  and  _145
REMARK   60  A    between atoms: _148  and  _150
REMARK   61  A    between atoms: _150  and  _151
REMARK   62  A    between atoms: _153  and  _155
REMARK   63  A    between atoms: _155  and  _156
REMARK   64  A    between atoms: _158  and  _160
REMARK   65  A    between atoms: _160  and  _161
REMARK   66  A    between atoms: _163  and  _165
REMARK   67  A    between atoms: _165  and  _166
REMARK   68  A    between atoms: _165  and  _168
REMARK   69  A    between atoms: _171  and  _173
REMARK   70  A    between atoms: _173  and  _174
REMARK   71  A    between atoms: _176  and  _178
REMARK   72  A    between atoms: _178  and  _179
REMARK   73  A    between atoms: _178  and  _181
REMARK   74  A    between atoms: _181  and  _182
REMARK   75  A    between atoms: _185  and  _187
REMARK   76  A    between atoms: _187  and  _188
REMARK   77  A    between atoms: _187  and  _190
REMARK   78  A    between atoms: _193  and  _195
REMARK   79  A    between atoms: _195  and  _196
REMARK   80  A    between atoms: _195  and  _198
REMARK   81  A    between atoms: _198  and  _199
REMARK   82  A    between atoms: _199  and  _200
REMARK   83  A    between atoms: _205  and  _207
REMARK   84  A    between atoms: _207  and  _208
REMARK   85  A    between atoms: _207  and  _210
REMARK   86  A    between atoms: _210  and  _211
REMARK   87  A    between atoms: _211  and  _212
REMARK   88  A    between atoms: _215  and  _217
REMARK   89  A    between atoms: _217  and  _218
REMARK   90  A    between atoms: _217  and  _220
REMARK   91  A    between atoms: _220  and  _221
REMARK   92  A    between atoms: _221  and  _222
REMARK   93  A    between atoms: _225  and  _227
REMARK   94  A    between atoms: _227  and  _228
REMARK   95  A    between atoms: _227  and  _230
REMARK   96  A    between atoms: _230  and  _231
REMARK   97  A    between atoms: _234  and  _236
REMARK   98  A    between atoms: _236  and  _237
REMARK   99  A    between atoms: _236  and  _239
REMARK  100  A    between atoms: _239  and  _240
REMARK  101  A    between atoms: _240  and  _241
REMARK  102  A    between atoms: _241  and  _242
REMARK  103  A    between atoms: _251  and  _253
REMARK  104  A    between atoms: _253  and  _254
REMARK  105  A    between atoms: _253  and  _256
REMARK  106  A    between atoms: _256  and  _257
REMARK  107  A    between atoms: _263  and  _265
REMARK  108  A    between atoms: _265  and  _266
REMARK  109  A    between atoms: _265  and  _268
REMARK  110  A    between atoms: _268  and  _269
REMARK  111  A    between atoms: _272  and  _274
REMARK  112  A    between atoms: _274  and  _275
REMARK  113  A    between atoms: _274  and  _277
REMARK  114  A    between atoms: _277  and  _278
REMARK  115  A    between atoms: _278  and  _279
REMARK  116  A    between atoms: _279  and  _280
REMARK  117  A    between atoms: _289  and  _291
REMARK  118  A    between atoms: _291  and  _292
REMARK  119  A    between atoms: _291  and  _294
REMARK  120  A    between atoms: _294  and  _295
REMARK  121  A    between atoms: _300  and  _301
REMARK  122  A    between atoms: _303  and  _305
REMARK  123  A    between atoms: _305  and  _306
REMARK  124  A    between atoms: _308  and  _310
REMARK  125  A    between atoms: _310  and  _311
REMARK  126  A    between atoms: _310  and  _313
REMARK  127  A    between atoms: _313  and  _314
REMARK  128  A    between atoms: _319  and  _320
REMARK  129  A    between atoms: _322  and  _324
REMARK  130  A    between atoms: _324  and  _325
REMARK  131  A    between atoms: _328  and  _330
REMARK  132  A    between atoms: _330  and  _331
REMARK  133  A    between atoms: _330  and  _333
REMARK  134  A    between atoms: _333  and  _334
REMARK  135  A    between atoms: _337  and  _339
REMARK  136  A    between atoms: _339  and  _340
REMARK  137  A    between atoms: _339  and  _342
REMARK  138  A    between atoms: _342  and  _343
REMARK  139  A    between atoms: _346  and  _348
REMARK  140  A    between atoms: _348  and  _349
REMARK  141  A    between atoms: _352  and  _354
REMARK  142  A    between atoms: _354  and  _355
REMARK  143  A    between atoms: _354  and  _357
REMARK  144  A    between atoms: _357  and  _358
REMARK  145  A    between atoms: _361  and  _363
REMARK  146  A    between atoms: _363  and  _364
REMARK  147  A    between atoms: _363  and  _366
REMARK  148  A    between atoms: _366  and  _367
REMARK  149  A    between atoms: _372  and  _374
REMARK  150  A    between atoms: _374  and  _375
REMARK  151  A    between atoms: _374  and  _377
REMARK  152  A    between atoms: _377  and  _378
REMARK  153  A    between atoms: _384  and  _386
REMARK  154  A    between atoms: _386  and  _387
REMARK  155  A    between atoms: _390  and  _392
REMARK  156  A    between atoms: _392  and  _393
REMARK  157  A    between atoms: _392  and  _395
REMARK  158  A    between atoms: _395  and  _396
REMARK  159  A    between atoms: _399  and  _401
REMARK  160  A    between atoms: _401  and  _402
REMARK  161  A    between atoms: _404  and  _406
REMARK  162  A    between atoms: _406  and  _407
REMARK  163  A    between atoms: _406  and  _409
REMARK  164  A    between atoms: _409  and  _410
REMARK  165  A    between atoms: _415  and  _417
REMARK  166  A    between atoms: _417  and  _418
REMARK  167  A    between atoms: _417  and  _420
REMARK  168  A    between atoms: _420  and  _421
REMARK  169  A    between atoms: _431  and  _433
REMARK  170  A    between atoms: _433  and  _434
REMARK  171  A    between atoms: _436  and  _438
REMARK  172  A    between atoms: _438  and  _439
REMARK  173  A    between atoms: _438  and  _441
REMARK  174  A    between atoms: _443  and  _445
REMARK  175  A    between atoms: _445  and  _446
REMARK  176  A    between atoms: _448  and  _450
REMARK  177  A    between atoms: _450  and  _451
REMARK  178  A    between atoms: _454  and  _456
REMARK  179  A    between atoms: _456  and  _457
REMARK  180  A    between atoms: _456  and  _459
REMARK  181  A    between atoms: _459  and  _460
REMARK  182  A    between atoms: _466  and  _468
REMARK  183  A    between atoms: _468  and  _469
REMARK  184  A    between atoms: _471  and  _473
REMARK  185  A    between atoms: _473  and  _474
REMARK  186  A    between atoms: _476  and  _478
REMARK  187  A    between atoms: _478  and  _479
REMARK  188  A    between atoms: _482  and  _484
REMARK  189  A    between atoms: _484  and  _485
REMARK  190  A    between atoms: _484  and  _487
REMARK  191  A    between atoms: _487  and  _488
REMARK  192  A    between atoms: _488  and  _489
REMARK  193  A    between atoms: _489  and  _490
REMARK  194  A    between atoms: _490  and  _491
REMARK  195  A    between atoms: _495  and  _497
REMARK  196  A    between atoms: _497  and  _498
REMARK  197  A    between atoms: _497  and  _500
REMARK  198  A    between atoms: _500  and  _501
REMARK  199  A    between atoms: _506  and  _507
REMARK  200  A    between atoms: _509  and  _511
REMARK  201  A    between atoms: _511  and  _512
REMARK  202  A    between atoms: _511  and  _514
REMARK  203  A    between atoms: _514  and  _515
REMARK  204  A    between atoms: _521  and  _523
REMARK  205  A    between atoms: _523  and  _524
REMARK  206  A    between atoms: _523  and  _526
REMARK  207  A    between atoms: _526  and  _527
REMARK  208  A    between atoms: _530  and  _532
REMARK  209  A    between atoms: _532  and  _533
REMARK  210  A    between atoms: _532  and  _535
REMARK  211  A    between atoms: _535  and  _536
REMARK  212  A    between atoms: _542  and  _544
REMARK  213  A    between atoms: _544  and  _545
REMARK  214  A    between atoms: _547  and  _549
REMARK  215  A    between atoms: _549  and  _550
REMARK  216  A    between atoms: _549  and  _552
REMARK  217  A    between atoms: _552  and  _553
REMARK  218  A    between atoms: _556  and  _558
REMARK  219  A    between atoms: _558  and  _559
REMARK  220  A    between atoms: _558  and  _561
REMARK  221  A    between atoms: _561  and  _562
REMARK                            x       y       z     vdW  Elec       q    Type
REMARK                         _______ _______ _______ _____ _____    ______ ____
ROOT
ATOM      1  C   ILE A   4      17.849  -5.348  -1.247  0.00  0.00    +0.241 C 
ATOM      2  O   ILE A   4      16.788  -5.937  -1.189  0.00  0.00    -0.273 OA
ATOM      3  N   GLU A   5      17.950  -4.104  -1.675  0.00  0.00    -0.297 N 
ATOM      4  H   GLU A   5      18.888  -3.685  -1.840  0.00  0.00    +0.150 HD
ENDROOT
BRANCH   1   5
ATOM      5  CA  ILE A   4      19.143  -6.054  -0.894  0.00  0.00    +0.149 C 
BRANCH   5   7
ATOM      6  C   THR A   3      19.951  -6.190  -3.210  0.00  0.00    +0.243 C 
ATOM      7  N   ILE A   4      20.166  -5.873  -1.929  0.00  0.00    -0.297 N 
ATOM      8  H   ILE A   4      21.091  -5.484  -1.657  0.00  0.00    +0.150 HD
ATOM      9  O   THR A   3      18.906  -6.716  -3.623  0.00  0.00    -0.273 OA
BRANCH   6  10
ATOM     10  CA  THR A   3      21.076  -5.818  -4.166  0.00  0.00    +0.176 C 
BRANCH  10  12
ATOM     11  C   GLY A   2      21.999  -7.181  -5.994  0.00  0.00    +0.243 C 
ATOM     12  N   THR A   3      20.984  -6.553  -5.409  0.00  0.00    -0.295 N 
ATOM     13  H   THR A   3      20.057  -6.593  -5.879  0.00  0.00    +0.150 HD
ATOM     14  O   GLY A   2      23.177  -7.142  -5.612  0.00  0.00    -0.273 OA
BRANCH  11  15
ATOM     15  CA  GLY A   2      21.603  -7.968  -7.219  0.00  0.00    +0.176 C 
BRANCH  15  18
ATOM     16  C   GLU A   1      23.279  -9.659  -7.590  0.00  0.00    +0.238 C 
ATOM     17  O   GLU A   1      22.861 -10.373  -6.699  0.00  0.00    -0.274 OA
ATOM     18  N   GLY A   2      22.758  -8.475  -7.893  0.00  0.00    -0.296 N 
ATOM     19  H   GLY A   2      23.201  -7.902  -8.639  0.00  0.00    +0.150 HD
BRANCH  16  20
ATOM     20  CA  GLU A   1      24.467 -10.072  -8.438  0.00  0.00    +0.145 C 
BRANCH  20  21
ATOM     21  N   GLU A   1      25.280 -11.078  -7.767  0.00  0.00    -0.238 NA
ATOM     22  H   GLU A   1      24.892 -12.034  -7.640  0.00  0.00    +0.142 HD
ENDBRANCH  20  21
BRANCH  20  23
ATOM     23  CB  GLU A   1      23.977 -10.556  -9.798  0.00  0.00    +0.038 C 
BRANCH  23  24
ATOM     24  CG  GLU A   1      25.158 -10.876 -10.743  0.00  0.00    +0.116 C 
BRANCH  24  25
ATOM     25  CD  GLU A   1      24.745 -11.073 -12.200  0.00  0.00    +0.365 C 
ATOM     26  OE2 GLU A   1      23.623 -11.591 -12.442  0.00  0.00    -0.246 OA
ATOM     27  OE1 GLU A   1      25.549 -10.733 -13.094  0.00  0.00    -0.246 OA
ENDBRANCH  24  25
ENDBRANCH  23  24
ENDBRANCH  20  23
ENDBRANCH  16  20
ENDBRANCH  15  18
ENDBRANCH  11  15
ENDBRANCH  10  12
BRANCH  10  28
ATOM     28  CB  THR A   3      20.976  -4.304  -4.400  0.00  0.00    +0.137 C 
ATOM     29  CG2 THR A   3      22.113  -3.828  -5.303  0.00  0.00    +0.034 C 
BRANCH  28  30
ATOM     30  OG1 THR A   3      19.691  -3.976  -4.974  0.00  0.00    -0.382 OA
ATOM     31  HG1 THR A   3      19.587  -4.447  -5.838  0.00  0.00    +0.210 HD
ENDBRANCH  28  30
ENDBRANCH  10  28
ENDBRANCH   6  10
ENDBRANCH   5   7
BRANCH   5  32
ATOM     32  CB  ILE A   4      19.654  -5.561   0.497  0.00  0.00    +0.027 C 
ATOM     33  CG2 ILE A   4      18.466  -5.392   1.536  0.00  0.00    +0.002 C 
BRANCH  32  34
ATOM     34  CG1 ILE A   4      20.714  -6.548   0.997  0.00  0.00    +0.002 C 
ATOM     35  CD1 ILE A   4      21.775  -5.921   1.831  0.00  0.00    +0.000 C 
ENDBRANCH  32  34
ENDBRANCH   5  32
ENDBRANCH   1   5
BRANCH   3  36
ATOM     36  CA  GLU A   5      16.751  -3.319  -1.916  0.00  0.00    +0.149 C 
BRANCH  36  37
ATOM     37  C   GLU A   5      15.996  -3.667  -3.184  0.00  0.00    +0.241 C 
ATOM     38  O   GLU A   5      14.791  -3.518  -3.206  0.00  0.00    -0.273 OA
ATOM     39  N   GLU A   6      16.663  -4.086  -4.248  0.00  0.00    -0.297 N 
ATOM     40  H   GLU A   6      17.699  -4.173  -4.225  0.00  0.00    +0.150 HD
BRANCH  39  41
ATOM     41  CA  GLU A   6      15.908  -4.425  -5.461  0.00  0.00    +0.149 C 
BRANCH  41  42
ATOM     42  C   GLU A   6      15.484  -5.913  -5.444  0.00  0.00    +0.241 C 
ATOM     43  N   ASN A   7      16.322  -6.787  -4.891  0.00  0.00    -0.298 N 
ATOM     44  H   ASN A   7      17.130  -6.440  -4.336  0.00  0.00    +0.150 HD
ATOM     45  O   GLU A   6      14.405  -6.256  -5.902  0.00  0.00    -0.273 OA
BRANCH  43  46
ATOM     46  CA  ASN A   7      16.124  -8.234  -5.051  0.00  0.00    +0.146 C 
BRANCH  46  47
ATOM     47  C   ASN A   7      15.741  -8.931  -3.754  0.00  0.00    +0.227 C 
ATOM     48  O   ASN A   7      15.671 -10.160  -3.715  0.00  0.00    -0.286 OA
ENDBRANCH  46  47
BRANCH  46  49
ATOM     49  CB  ASN A   7      17.375  -8.837  -5.661  0.00  0.00    +0.112 C 
BRANCH  49  50
ATOM     50  CG  ASN A   7      17.849  -8.047  -6.878  0.00  0.00    +0.222 C 
ATOM     51  OD1 ASN A   7      18.778  -7.231  -6.795  0.00  0.00    -0.275 OA
ATOM     52  ND2 ASN A   7      17.152  -8.222  -7.989  0.00  0.00    -0.329 N 
ATOM     53 HD21 ASN A   7      16.380  -8.918  -8.014  0.00  0.00    +0.145 HD
ATOM     54 HD22 ASN A   7      17.376  -7.663  -8.837  0.00  0.00    +0.145 HD
ENDBRANCH  49  50
ENDBRANCH  46  49
ENDBRANCH  43  46
ENDBRANCH  41  42
BRANCH  41  55
ATOM     55  CB  GLU A   6      16.697  -4.080  -6.734  0.00  0.00    +0.041 C 
BRANCH  55  56
ATOM     56  CG  GLU A   6      15.800  -4.183  -7.971  0.00  0.00    +0.116 C 
BRANCH  56  57
ATOM     57  CD  GLU A   6      16.490  -3.813  -9.287  0.00  0.00    +0.365 C 
ATOM     58  OE2 GLU A   6      17.589  -3.181  -9.239  0.00  0.00    -0.246 OA
ATOM     59  OE1 GLU A   6      15.909  -4.159 -10.363  0.00  0.00    -0.246 OA
ENDBRANCH  56  57
ENDBRANCH  55  56
ENDBRANCH  41  55
ENDBRANCH  39  41
ENDBRANCH  36  37
BRANCH  36  60
ATOM     60  CB  GLU A   5      17.059  -1.822  -1.870  0.00  0.00    +0.041 C 
BRANCH  60  61
ATOM     61  CG  GLU A   5      17.836  -1.226  -3.018  0.00  0.00    +0.116 C 
BRANCH  61  62
ATOM     62  CD  GLU A   5      19.358  -1.323  -2.851  0.00  0.00    +0.365 C 
ATOM     63  OE2 GLU A   5      19.837  -2.022  -1.933  0.00  0.00    -0.246 OA
ATOM     64  OE1 GLU A   5      20.053  -0.723  -3.688  0.00  0.00    -0.246 OA
ENDBRANCH  61  62
ENDBRANCH  60  61
ENDBRANCH  36  60
ENDBRANCH   3  36
TORSDOF 29
REMARK  Name = ../refined-set-2016/4b1j/4b1j_pocket.pdb
REMARK  221 active torsions:
REMARK  status: ('A' for Active; 'I' for Inactive)
REMARK    1  A    between atoms: _1  and  _3
REMARK    2  A    between atoms: _3  and  _4
REMARK    3  A    between atoms: _3  and  _6
REMARK    4  A    between atoms: _6  and  _7
REMARK    5  A    between atoms: _7  and  _8
REMARK    6  A    between atoms: _11  and  _13
REMARK    7  A    between atoms: _13  and  _14
REMARK    8  A    between atoms: _16  and  _18
REMARK    9  A    between atoms: _18  and  _19
REMARK   10  A    between atoms: _18  and  _21
REMARK   11  A    between atoms: _21  and  _22
REMARK   12  A    between atoms: _25  and  _27
REMARK   13  A    between atoms: _27  and  _28
REMARK   14  A    between atoms: _27  and  _30
REMARK   15  A    between atoms: _30  and  _31
REMARK   16  A    between atoms: _34  and  _36
REMARK   17  A    between atoms: _36  and  _37
REMARK   18  A    between atoms: _36  and  _39
REMARK   19  A    between atoms: _39  and  _40
REMARK   20  A    between atoms: _40  and  _41
REMARK   21  A    between atoms: _44  and  _46
REMARK   22  A    between atoms: _46  and  _47
REMARK   23  A    between atoms: _46  and  _49
REMARK   24  A    between atoms: _49  and  _50
REMARK   25  A    between atoms: _50  and  _51
REMARK   26  A    between atoms: _54  and  _56
REMARK   27  A    between atoms: _56  and  _57
REMARK   28  A    between atoms: _56  and  _59
REMARK   29  A    between atoms: _59  and  _60
REMARK   30  A    between atoms: _65  and  _67
REMARK   31  A    between atoms: _67  and  _68
REMARK   32  A    between atoms: _67  and  _70
REMARK   33  A    between atoms: _73  and  _75
REMARK   34  A    between atoms: _75  and  _76
REMARK   35  A    between atoms: _75  and  _78
REMARK   36  A    between atoms: _78  and  _79
REMARK   37  A    between atoms: _82  and  _84
REMARK   38  A    between atoms: _84  and  _85
REMARK   39  A    between atoms: _84  and  _87
REMARK   40  A    between atoms: _87  and  _88
REMARK   41  A    between atoms: _94  and  _96
REMARK   42  A    between atoms: _96  and  _97
REMARK   43  A    between atoms: _100  and  _102
REMARK   44  A    between atoms: _102  and  _103
REMARK   45  A    between atoms: _102  and  _105
REMARK   46  A    between atoms: _105  and  _106
REMARK   47  A    between atoms: _111  and  _113
REMARK   48  A    between atoms: _113  and  _114
REMARK   49  A    between atoms: _113  and  _116
REMARK   50  A    between atoms: _116  and  _117
REMARK   51  A    between atoms: _117  and  _118
REMARK   52  A    between atoms: _118  and  _119
REMARK   53  A    between atoms: _128  and  _130
REMARK   54  A    between atoms: _130  and  _131
REMARK   55  A    between atoms: _130  and  _133
REMARK   56  A    between atoms: _133  and  _134
REMARK   57  A    between atoms: _140  and  _142
REMARK   58  A    between atoms: _142  and  _143
REMARK   59  A    between atoms: _142  and  _145
REMARK   60  A    between atoms: _148  and  _150
REMARK   61  A    between atoms: _150  and  _151
REMARK   62  A    between atoms: _153  and  _155
REMARK   63  A    between atoms: _155  and  _156
REMARK   64  A    between atoms: _158  and  _160
REMARK   65  A    between atoms: _160  and  _161
REMARK   66  A    between atoms: _163  and  _165
REMARK   67  A    between atoms: _165  and  _166
REMARK   68  A    between atoms: _165  and  _168
REMARK   69  A    between atoms: _171  and  _173
REMARK   70  A    between atoms: _173  and  _174
REMARK   71  A    between atoms: _176  and  _178
REMARK   72  A    between atoms: _178  and  _179
REMARK   73  A    between atoms: _178  and  _181
REMARK   74  A    between atoms: _181  and  _182
REMARK   75  A    between atoms: _185  and  _187
REMARK   76  A    between atoms: _187  and  _188
REMARK   77  A    between atoms: _187  and  _190
REMARK   78  A    between atoms: _193  and  _195
REMARK   79  A    between atoms: _195  and  _196
REMARK   80  A    between atoms: _195  and  _198
REMARK   81  A    between atoms: _198  and  _199
REMARK   82  A    between atoms: _199  and  _200
REMARK   83  A    between atoms: _205  and  _207
REMARK   84  A    between atoms: _207  and  _208
REMARK   85  A    between atoms: _207  and  _210
REMARK   86  A    between atoms: _210  and  _211
REMARK   87  A    between atoms: _211  and  _212
REMARK   88  A    between atoms: _215  and  _217
REMARK   89  A    between atoms: _217  and  _218
REMARK   90  A    between atoms: _217  and  _220
REMARK   91  A    between atoms: _220  and  _221
REMARK   92  A    between atoms: _221  and  _222
REMARK   93  A    between atoms: _225  and  _227
REMARK   94  A    between atoms: _227  and  _228
REMARK   95  A    between atoms: _227  and  _230
REMARK   96  A    between atoms: _230  and  _231
REMARK   97  A    between atoms: _234  and  _236
REMARK   98  A    between atoms: _236  and  _237
REMARK   99  A    between atoms: _236  and  _239
REMARK  100  A    between atoms: _239  and  _240
REMARK  101  A    between atoms: _240  and  _241
REMARK  102  A    between atoms: _241  and  _242
REMARK  103  A    between atoms: _251  and  _253
REMARK  104  A    between atoms: _253  and  _254
REMARK  105  A    between atoms: _253  and  _256
REMARK  106  A    between atoms: _256  and  _257
REMARK  107  A    between atoms: _263  and  _265
REMARK  108  A    between atoms: _265  and  _266
REMARK  109  A    between atoms: _265  and  _268
REMARK  110  A    between atoms: _268  and  _269
REMARK  111  A    between atoms: _272  and  _274
REMARK  112  A    between atoms: _274  and  _275
REMARK  113  A    between atoms: _274  and  _277
REMARK  114  A    between atoms: _277  and  _278
REMARK  115  A    between atoms: _278  and  _279
REMARK  116  A    between atoms: _279  and  _280
REMARK  117  A    between atoms: _289  and  _291
REMARK  118  A    between atoms: _291  and  _292
REMARK  119  A    between atoms: _291  and  _294
REMARK  120  A    between atoms: _294  and  _295
REMARK  121  A    between atoms: _300  and  _301
REMARK  122  A    between atoms: _303  and  _305
REMARK  123  A    between atoms: _305  and  _306
REMARK  124  A    between atoms: _308  and  _310
REMARK  125  A    between atoms: _310  and  _311
REMARK  126  A    between atoms: _310  and  _313
REMARK  127  A    between atoms: _313  and  _314
REMARK  128  A    between atoms: _319  and  _320
REMARK  129  A    between atoms: _322  and  _324
REMARK  130  A    between atoms: _324  and  _325
REMARK  131  A    between atoms: _328  and  _330
REMARK  132  A    between atoms: _330  and  _331
REMARK  133  A    between atoms: _330  and  _333
REMARK  134  A    between atoms: _333  and  _334
REMARK  135  A    between atoms: _337  and  _339
REMARK  136  A    between atoms: _339  and  _340
REMARK  137  A    between atoms: _339  and  _342
REMARK  138  A    between atoms: _342  and  _343
REMARK  139  A    between atoms: _346  and  _348
REMARK  140  A    between atoms: _348  and  _349
REMARK  141  A    between atoms: _352  and  _354
REMARK  142  A    between atoms: _354  and  _355
REMARK  143  A    between atoms: _354  and  _357
REMARK  144  A    between atoms: _357  and  _358
REMARK  145  A    between atoms: _361  and  _363
REMARK  146  A    between atoms: _363  and  _364
REMARK  147  A    between atoms: _363  and  _366
REMARK  148  A    between atoms: _366  and  _367
REMARK  149  A    between atoms: _372  and  _374
REMARK  150  A    between atoms: _374  and  _375
REMARK  151  A    between atoms: _374  and  _377
REMARK  152  A    between atoms: _377  and  _378
REMARK  153  A    between atoms: _384  and  _386
REMARK  154  A    between atoms: _386  and  _387
REMARK  155  A    between atoms: _390  and  _392
REMARK  156  A    between atoms: _392  and  _393
REMARK  157  A    between atoms: _392  and  _395
REMARK  158  A    between atoms: _395  and  _396
REMARK  159  A    between atoms: _399  and  _401
REMARK  160  A    between atoms: _401  and  _402
REMARK  161  A    between atoms: _404  and  _406
REMARK  162  A    between atoms: _406  and  _407
REMARK  163  A    between atoms: _406  and  _409
REMARK  164  A    between atoms: _409  and  _410
REMARK  165  A    between atoms: _415  and  _417
REMARK  166  A    between atoms: _417  and  _418
REMARK  167  A    between atoms: _417  and  _420
REMARK  168  A    between atoms: _420  and  _421
REMARK  169  A    between atoms: _431  and  _433
REMARK  170  A    between atoms: _433  and  _434
REMARK  171  A    between atoms: _436  and  _438
REMARK  172  A    between atoms: _438  and  _439
REMARK  173  A    between atoms: _438  and  _441
REMARK  174  A    between atoms: _443  and  _445
REMARK  175  A    between atoms: _445  and  _446
REMARK  176  A    between atoms: _448  and  _450
REMARK  177  A    between atoms: _450  and  _451
REMARK  178  A    between atoms: _454  and  _456
REMARK  179  A    between atoms: _456  and  _457
REMARK  180  A    between atoms: _456  and  _459
REMARK  181  A    between atoms: _459  and  _460
REMARK  182  A    between atoms: _466  and  _468
REMARK  183  A    between atoms: _468  and  _469
REMARK  184  A    between atoms: _471  and  _473
REMARK  185  A    between atoms: _473  and  _474
REMARK  186  A    between atoms: _476  and  _478
REMARK  187  A    between atoms: _478  and  _479
REMARK  188  A    between atoms: _482  and  _484
REMARK  189  A    between atoms: _484  and  _485
REMARK  190  A    between atoms: _484  and  _487
REMARK  191  A    between atoms: _487  and  _488
REMARK  192  A    between atoms: _488  and  _489
REMARK  193  A    between atoms: _489  and  _490
REMARK  194  A    between atoms: _490  and  _491
REMARK  195  A    between atoms: _495  and  _497
REMARK  196  A    between atoms: _497  and  _498
REMARK  197  A    between atoms: _497  and  _500
REMARK  198  A    between atoms: _500  and  _501
REMARK  199  A    between atoms: _506  and  _507
REMARK  200  A    between atoms: _509  and  _511
REMARK  201  A    between atoms: _511  and  _512
REMARK  202  A    between atoms: _511  and  _514
REMARK  203  A    between atoms: _514  and  _515
REMARK  204  A    between atoms: _521  and  _523
REMARK  205  A    between atoms: _523  and  _524
REMARK  206  A    between atoms: _523  and  _526
REMARK  207  A    between atoms: _526  and  _527
REMARK  208  A    between atoms: _530  and  _532
REMARK  209  A    between atoms: _532  and  _533
REMARK  210  A    between atoms: _532  and  _535
REMARK  211  A    between atoms: _535  and  _536
REMARK  212  A    between atoms: _542  and  _544
REMARK  213  A    between atoms: _544  and  _545
REMARK  214  A    between atoms: _547  and  _549
REMARK  215  A    between atoms: _549  and  _550
REMARK  216  A    between atoms: _549  and  _552
REMARK  217  A    between atoms: _552  and  _553
REMARK  218  A    between atoms: _556  and  _558
REMARK  219  A    between atoms: _558  and  _559
REMARK  220  A    between atoms: _558  and  _561
REMARK  221  A    between atoms: _561  and  _562
REMARK                            x       y       z     vdW  Elec       q    Type
REMARK                         _______ _______ _______ _____ _____    ______ ____
ROOT
ATOM      1  CA  ARG A   6      24.491   2.871  16.327  0.00  0.00    +0.149 C 
ENDROOT
BRANCH   1   2
ATOM      2  C   ARG A   6      23.612   4.131  16.438  0.00  0.00    +0.241 C 
ATOM      3  O   ARG A   6      22.467   4.079  16.940  0.00  0.00    -0.273 OA
ATOM      4  N   PHE A   7      24.147   5.266  15.988  0.00  0.00    -0.297 N 
ATOM      5  H   PHE A   7      25.174   5.314  15.830  0.00  0.00    +0.150 HD
BRANCH   4   6
ATOM      6  CA  PHE A   7      23.334   6.437  15.713  0.00  0.00    +0.153 C 
BRANCH   6   7
ATOM      7  C   PHE A   7      22.665   6.219  14.337  0.00  0.00    +0.241 C 
ATOM      8  N   VAL A   8      21.387   5.837  14.340  0.00  0.00    -0.297 N 
ATOM      9  H   VAL A   8      20.830   5.893  15.217  0.00  0.00    +0.150 HD
ATOM     10  O   PHE A   7      23.281   6.402  13.285  0.00  0.00    -0.273 OA
BRANCH   8  11
ATOM     11  CA  VAL A   8      20.762   5.335  13.103  0.00  0.00    +0.149 C 
BRANCH  11  12
ATOM     12  C   VAL A   8      20.817   6.333  11.989  0.00  0.00    +0.241 C 
ATOM     13  O   VAL A   8      20.698   7.546  12.227  0.00  0.00    -0.273 OA
ATOM     14  N   GLY A   9      20.995   5.825  10.770  0.00  0.00    -0.295 N 
ATOM     15  H   GLY A   9      21.051   4.791  10.672  0.00  0.00    +0.150 HD
BRANCH  14  16
ATOM     16  CA  GLY A   9      21.118   6.656   9.539  0.00  0.00    +0.176 C 
BRANCH  16  17
ATOM     17  C   GLY A   9      22.529   7.162   9.212  0.00  0.00    +0.243 C 
ATOM     18  N   GLY A  10      23.454   6.986  10.144  0.00  0.00    -0.295 N 
ATOM     19  H   GLY A  10      23.174   6.581  11.060  0.00  0.00    +0.150 HD
ATOM     20  O   GLY A   9      22.767   7.712   8.122  0.00  0.00    -0.273 OA
BRANCH  18  21
ATOM     21  CA  GLY A  10      24.846   7.339   9.929  0.00  0.00    +0.176 C 
BRANCH  21  22
ATOM     22  C   GLY A  10      25.058   8.789   9.568  0.00  0.00    +0.243 C 
ATOM     23  O   GLY A  10      24.598   9.679  10.246  0.00  0.00    -0.273 OA
ATOM     24  N   GLY A  11      25.737   9.002   8.453  0.00  0.00    -0.295 N 
ATOM     25  H   GLY A  11      26.109   8.181   7.934  0.00  0.00    +0.150 HD
BRANCH  24  26
ATOM     26  CA  GLY A  11      25.986  10.323   7.923  0.00  0.00    +0.176 C 
BRANCH  26  27
ATOM     27  C   GLY A  11      25.011  10.805   6.861  0.00  0.00    +0.243 C 
ATOM     28  N   VAL A  12      23.778  10.322   6.894  0.00  0.00    -0.298 N 
ATOM     29  H   VAL A  12      23.468   9.728   7.690  0.00  0.00    +0.150 HD
ATOM     30  O   GLY A  11      25.361  11.665   6.031  0.00  0.00    -0.273 OA
BRANCH  28  31
ATOM     31  CA  VAL A  12      22.856  10.631   5.801  0.00  0.00    +0.137 C 
BRANCH  31  32
ATOM     32  CB  VAL A  12      21.506   9.883   5.908  0.00  0.00    +0.026 C 
ATOM     33  CG2 VAL A  12      20.744  10.285   7.208  0.00  0.00    +0.002 C 
ATOM     34  CG1 VAL A  12      20.696  10.143   4.672  0.00  0.00    +0.002 C 
ENDBRANCH  31  32
BRANCH  31  35
ATOM     35  C   VAL A  12      22.655  12.142   5.665  0.00  0.00    +0.227 C 
ATOM     36  O   VAL A  12      22.616  12.639   4.547  0.00  0.00    -0.286 OA
ENDBRANCH  31  35
ENDBRANCH  28  31
ENDBRANCH  26  27
ENDBRANCH  24  26
ENDBRANCH  21  22
ENDBRANCH  18  21
ENDBRANCH  16  17
ENDBRANCH  14  16
ENDBRANCH  11  12
BRANCH  11  37
ATOM     37  CB  VAL A   8      19.302   4.813  13.290  0.00  0.00    +0.027 C 
ATOM     38  CG2 VAL A   8      19.279   3.515  14.143  0.00  0.00    +0.002 C 
ATOM     39  CG1 VAL A   8      18.394   5.879  13.819  0.00  0.00    +0.002 C 
ENDBRANCH  11  37
ENDBRANCH   8  11
ENDBRANCH   6   7
BRANCH   6  40
ATOM     40  CB  PHE A   7      24.170   7.710  15.719  0.00  0.00    +0.055 C 
BRANCH  40  41
ATOM     41  CG  PHE A   7      24.675   8.118  17.076  0.00  0.00    -0.020 A 
ATOM     42  CD2 PHE A   7      23.927   8.942  17.873  0.00  0.00    -0.004 A 
ATOM     43  CE2 PHE A   7      24.394   9.346  19.100  0.00  0.00    -0.000 A 
ATOM     44  CZ  PHE A   7      25.602   8.929  19.557  0.00  0.00    -0.000 A 
ATOM     45  CE1 PHE A   7      26.371   8.113  18.785  0.00  0.00    -0.000 A 
ATOM     46  CD1 PHE A   7      25.919   7.718  17.528  0.00  0.00    -0.004 A 
ENDBRANCH  40  41
ENDBRANCH   6  40
ENDBRANCH   4   6
ENDBRANCH   1   2
BRANCH   1  48
ATOM     47  C   ASN A   5      24.762   2.901  13.924  0.00  0.00    +0.241 C 
ATOM     48  N   ARG A   6      25.333   2.880  15.118  0.00  0.00    -0.297 N 
ATOM     49  H   ARG A   6      26.370   2.870  15.202  0.00  0.00    +0.150 HD
ATOM     50  O   ASN A   5      23.525   2.872  13.807  0.00  0.00    -0.273 OA
BRANCH  47  51
ATOM     51  CA  ASN A   5      25.668   2.995  12.682  0.00  0.00    +0.158 C 
BRANCH  51  53
ATOM     52  C   ALA A   4      25.006   1.110  11.233  0.00  0.00    +0.241 C 
ATOM     53  N   ASN A   5      24.990   2.404  11.553  0.00  0.00    -0.297 N 
ATOM     54  H   ASN A   5      24.444   3.041  10.938  0.00  0.00    +0.150 HD
ATOM     55  O   ALA A   4      25.914   0.324  11.511  0.00  0.00    -0.273 OA
BRANCH  52  56
ATOM     56  CA  ALA A   4      23.795   0.672  10.411  0.00  0.00    +0.149 C 
ATOM     57  CB  ALA A   4      22.555   0.564  11.311  0.00  0.00    +0.031 C 
BRANCH  56  59
ATOM     58  C   PHE A   3      24.554  -0.642   8.490  0.00  0.00    +0.241 C 
ATOM     59  N   ALA A   4      23.980  -0.580   9.689  0.00  0.00    -0.297 N 
ATOM     60  H   ALA A   4      23.650  -1.462  10.129  0.00  0.00    +0.150 HD
ATOM     61  O   PHE A   3      25.331   0.237   8.065  0.00  0.00    -0.273 OA
BRANCH  58  62
ATOM     62  CA  PHE A   3      24.261  -1.956   7.747  0.00  0.00    +0.153 C 
BRANCH  62  65
ATOM     63  C   ASP A   2      21.813  -2.008   7.780  0.00  0.00    +0.241 C 
ATOM     64  O   ASP A   2      21.791  -2.264   8.998  0.00  0.00    -0.273 OA
ATOM     65  N   PHE A   3      22.955  -1.865   7.094  0.00  0.00    -0.297 N 
ATOM     66  H   PHE A   3      22.912  -1.685   6.071  0.00  0.00    +0.150 HD
BRANCH  63  67
ATOM     67  CA  ASP A   2      20.506  -1.892   6.983  0.00  0.00    +0.160 C 
BRANCH  67  69
ATOM     68  C   VAL A   1      19.788  -4.081   6.109  0.00  0.00    +0.238 C 
ATOM     69  N   ASP A   2      19.810  -3.186   7.072  0.00  0.00    -0.297 N 
ATOM     70  H   ASP A   2      19.303  -3.406   7.953  0.00  0.00    +0.150 HD
ATOM     71  O   VAL A   1      20.131  -3.849   4.984  0.00  0.00    -0.274 OA
BRANCH  68  72
ATOM     72  CA  VAL A   1      19.213  -5.415   6.504  0.00  0.00    +0.145 C 
BRANCH  72  73
ATOM     73  CB  VAL A   1      20.318  -6.488   6.768  0.00  0.00    +0.025 C 
ATOM     74  CG2 VAL A   1      21.395  -5.946   7.736  0.00  0.00    +0.002 C 
ATOM     75  CG1 VAL A   1      19.666  -7.734   7.373  0.00  0.00    +0.002 C 
ENDBRANCH  72  73
BRANCH  72  76
ATOM     76  N   VAL A   1      18.259  -5.832   5.502  0.00  0.00    -0.238 NA
ATOM     77  H   VAL A   1      18.589  -6.371   4.676  0.00  0.00    +0.142 HD
ENDBRANCH  72  76
ENDBRANCH  68  72
ENDBRANCH  67  69
BRANCH  67  78
ATOM     78  CB  ASP A   2      19.577  -0.784   7.520  0.00  0.00    +0.143 C 
BRANCH  78  79
ATOM     79  CG  ASP A   2      20.319   0.455   7.968  0.00  0.00    +0.367 C 
ATOM     80  OD2 ASP A   2      19.749   1.228   8.760  0.00  0.00    -0.246 OA
ATOM     81  OD1 ASP A   2      21.457   0.677   7.510  0.00  0.00    -0.246 OA
ENDBRANCH  78  79
ENDBRANCH  67  78
ENDBRANCH  63  67
ENDBRANCH  62  65
BRANCH  62  82
ATOM     82  CB  PHE A   3      25.390  -2.297   6.757  0.00  0.00    +0.055 C 
BRANCH  82  83
ATOM     83  CG  PHE A   3      25.111  -3.504   5.869  0.00  0.00    -0.020 A 
ATOM     84  CD2 PHE A   3      24.339  -4.580   6.311  0.00  0.00    -0.004 A 
ATOM     85  CE2 PHE A   3      24.110  -5.670   5.501  0.00  0.00    -0.000 A 
ATOM     86  CZ  PHE A   3      24.646  -5.704   4.245  0.00  0.00    -0.000 A 
ATOM     87  CE1 PHE A   3      25.424  -4.650   3.790  0.00  0.00    -0.000 A 
ATOM     88  CD1 PHE A   3      25.662  -3.571   4.604  0.00  0.00    -0.004 A 
ENDBRANCH  82  83
ENDBRANCH  62  82
ENDBRANCH  58  62
ENDBRANCH  56  59
ENDBRANCH  52  56
ENDBRANCH  51  53
BRANCH  51  89
ATOM     89  CB  ASN A   5      26.023   4.469  12.394  0.00  0.00    +0.114 C 
BRANCH  89  90
ATOM     90  CG  ASN A   5      27.070   5.029  13.410  0.00  0.00    +0.222 C 
ATOM     91  OD1 ASN A   5      26.736   5.339  14.551  0.00  0.00    -0.275 OA
ATOM     92  ND2 ASN A   5      28.339   5.106  12.987  0.00  0.00    -0.329 N 
ATOM     93 HD21 ASN A   5      29.083   5.438  13.633  0.00  0.00    +0.145 HD
ATOM     94 HD22 ASN A   5      28.580   4.834  12.013  0.00  0.00    +0.145 HD
ENDBRANCH  89  90
ENDBRANCH  51  89
ENDBRANCH  47  51
ENDBRANCH   1  48
BRANCH   1  95
ATOM     95  CB  ARG A   6      25.319   2.663  17.587  0.00  0.00    +0.033 C 
BRANCH  95  96
ATOM     96  CG  ARG A   6      26.504   3.595  17.771  0.00  0.00    +0.045 C 
BRANCH  96  97
ATOM     97  CD  ARG A   6      27.340   3.117  18.941  0.00  0.00    +0.174 C 
BRANCH  97  98
ATOM     98  NE  ARG A   6      28.338   4.122  19.265  0.00  0.00    -0.265 N 
ATOM     99  CZ  ARG A   6      28.355   4.865  20.374  0.00  0.00    +0.342 C 
ATOM    100  NH2 ARG A   6      27.448   4.696  21.345  0.00  0.00    -0.292 N 
ATOM    101 HH21 ARG A   6      27.484   5.288  22.199  0.00  0.00    +0.255 HD
ATOM    102 HH22 ARG A   6      26.708   3.972  21.245  0.00  0.00    +0.255 HD
ATOM    103  NH1 ARG A   6      29.325   5.765  20.527  0.00  0.00    -0.292 N 
ATOM    104 HH11 ARG A   6      29.357   6.354  21.383  0.00  0.00    +0.255 HD
ATOM    105 HH12 ARG A   6      30.050   5.878  19.790  0.00  0.00    +0.255 HD
ATOM    106  HE  ARG A   6      29.102   4.275  18.576  0.00  0.00    +0.259 HD
ENDBRANCH  97  98
ENDBRANCH  96  97
ENDBRANCH  95  96
ENDBRANCH   1  95
TORSDOF 39
REMARK  Name = ../refined-set-2016/4b1j/4b1j_pocket.pdb
REMARK  221 active torsions:
REMARK  status: ('A' for Active; 'I' for Inactive)
REMARK    1  A    between atoms: _1  and  _3
REMARK    2  A    between atoms: _3  and  _4
REMARK    3  A    between atoms: _3  and  _6
REMARK    4  A    between atoms: _6  and  _7
REMARK    5  A    between atoms: _7  and  _8
REMARK    6  A    between atoms: _11  and  _13
REMARK    7  A    between atoms: _13  and  _14
REMARK    8  A    between atoms: _16  and  _18
REMARK    9  A    between atoms: _18  and  _19
REMARK   10  A    between atoms: _18  and  _21
REMARK   11  A    between atoms: _21  and  _22
REMARK   12  A    between atoms: _25  and  _27
REMARK   13  A    between atoms: _27  and  _28
REMARK   14  A    between atoms: _27  and  _30
REMARK   15  A    between atoms: _30  and  _31
REMARK   16  A    between atoms: _34  and  _36
REMARK   17  A    between atoms: _36  and  _37
REMARK   18  A    between atoms: _36  and  _39
REMARK   19  A    between atoms: _39  and  _40
REMARK   20  A    between atoms: _40  and  _41
REMARK   21  A    between atoms: _44  and  _46
REMARK   22  A    between atoms: _46  and  _47
REMARK   23  A    between atoms: _46  and  _49
REMARK   24  A    between atoms: _49  and  _50
REMARK   25  A    between atoms: _50  and  _51
REMARK   26  A    between atoms: _54  and  _56
REMARK   27  A    between atoms: _56  and  _57
REMARK   28  A    between atoms: _56  and  _59
REMARK   29  A    between atoms: _59  and  _60
REMARK   30  A    between atoms: _65  and  _67
REMARK   31  A    between atoms: _67  and  _68
REMARK   32  A    between atoms: _67  and  _70
REMARK   33  A    between atoms: _73  and  _75
REMARK   34  A    between atoms: _75  and  _76
REMARK   35  A    between atoms: _75  and  _78
REMARK   36  A    between atoms: _78  and  _79
REMARK   37  A    between atoms: _82  and  _84
REMARK   38  A    between atoms: _84  and  _85
REMARK   39  A    between atoms: _84  and  _87
REMARK   40  A    between atoms: _87  and  _88
REMARK   41  A    between atoms: _94  and  _96
REMARK   42  A    between atoms: _96  and  _97
REMARK   43  A    between atoms: _100  and  _102
REMARK   44  A    between atoms: _102  and  _103
REMARK   45  A    between atoms: _102  and  _105
REMARK   46  A    between atoms: _105  and  _106
REMARK   47  A    between atoms: _111  and  _113
REMARK   48  A    between atoms: _113  and  _114
REMARK   49  A    between atoms: _113  and  _116
REMARK   50  A    between atoms: _116  and  _117
REMARK   51  A    between atoms: _117  and  _118
REMARK   52  A    between atoms: _118  and  _119
REMARK   53  A    between atoms: _128  and  _130
REMARK   54  A    between atoms: _130  and  _131
REMARK   55  A    between atoms: _130  and  _133
REMARK   56  A    between atoms: _133  and  _134
REMARK   57  A    between atoms: _140  and  _142
REMARK   58  A    between atoms: _142  and  _143
REMARK   59  A    between atoms: _142  and  _145
REMARK   60  A    between atoms: _148  and  _150
REMARK   61  A    between atoms: _150  and  _151
REMARK   62  A    between atoms: _153  and  _155
REMARK   63  A    between atoms: _155  and  _156
REMARK   64  A    between atoms: _158  and  _160
REMARK   65  A    between atoms: _160  and  _161
REMARK   66  A    between atoms: _163  and  _165
REMARK   67  A    between atoms: _165  and  _166
REMARK   68  A    between atoms: _165  and  _168
REMARK   69  A    between atoms: _171  and  _173
REMARK   70  A    between atoms: _173  and  _174
REMARK   71  A    between atoms: _176  and  _178
REMARK   72  A    between atoms: _178  and  _179
REMARK   73  A    between atoms: _178  and  _181
REMARK   74  A    between atoms: _181  and  _182
REMARK   75  A    between atoms: _185  and  _187
REMARK   76  A    between atoms: _187  and  _188
REMARK   77  A    between atoms: _187  and  _190
REMARK   78  A    between atoms: _193  and  _195
REMARK   79  A    between atoms: _195  and  _196
REMARK   80  A    between atoms: _195  and  _198
REMARK   81  A    between atoms: _198  and  _199
REMARK   82  A    between atoms: _199  and  _200
REMARK   83  A    between atoms: _205  and  _207
REMARK   84  A    between atoms: _207  and  _208
REMARK   85  A    between atoms: _207  and  _210
REMARK   86  A    between atoms: _210  and  _211
REMARK   87  A    between atoms: _211  and  _212
REMARK   88  A    between atoms: _215  and  _217
REMARK   89  A    between atoms: _217  and  _218
REMARK   90  A    between atoms: _217  and  _220
REMARK   91  A    between atoms: _220  and  _221
REMARK   92  A    between atoms: _221  and  _222
REMARK   93  A    between atoms: _225  and  _227
REMARK   94  A    between atoms: _227  and  _228
REMARK   95  A    between atoms: _227  and  _230
REMARK   96  A    between atoms: _230  and  _231
REMARK   97  A    between atoms: _234  and  _236
REMARK   98  A    between atoms: _236  and  _237
REMARK   99  A    between atoms: _236  and  _239
REMARK  100  A    between atoms: _239  and  _240
REMARK  101  A    between atoms: _240  and  _241
REMARK  102  A    between atoms: _241  and  _242
REMARK  103  A    between atoms: _251  and  _253
REMARK  104  A    between atoms: _253  and  _254
REMARK  105  A    between atoms: _253  and  _256
REMARK  106  A    between atoms: _256  and  _257
REMARK  107  A    between atoms: _263  and  _265
REMARK  108  A    between atoms: _265  and  _266
REMARK  109  A    between atoms: _265  and  _268
REMARK  110  A    between atoms: _268  and  _269
REMARK  111  A    between atoms: _272  and  _274
REMARK  112  A    between atoms: _274  and  _275
REMARK  113  A    between atoms: _274  and  _277
REMARK  114  A    between atoms: _277  and  _278
REMARK  115  A    between atoms: _278  and  _279
REMARK  116  A    between atoms: _279  and  _280
REMARK  117  A    between atoms: _289  and  _291
REMARK  118  A    between atoms: _291  and  _292
REMARK  119  A    between atoms: _291  and  _294
REMARK  120  A    between atoms: _294  and  _295
REMARK  121  A    between atoms: _300  and  _301
REMARK  122  A    between atoms: _303  and  _305
REMARK  123  A    between atoms: _305  and  _306
REMARK  124  A    between atoms: _308  and  _310
REMARK  125  A    between atoms: _310  and  _311
REMARK  126  A    between atoms: _310  and  _313
REMARK  127  A    between atoms: _313  and  _314
REMARK  128  A    between atoms: _319  and  _320
REMARK  129  A    between atoms: _322  and  _324
REMARK  130  A    between atoms: _324  and  _325
REMARK  131  A    between atoms: _328  and  _330
REMARK  132  A    between atoms: _330  and  _331
REMARK  133  A    between atoms: _330  and  _333
REMARK  134  A    between atoms: _333  and  _334
REMARK  135  A    between atoms: _337  and  _339
REMARK  136  A    between atoms: _339  and  _340
REMARK  137  A    between atoms: _339  and  _342
REMARK  138  A    between atoms: _342  and  _343
REMARK  139  A    between atoms: _346  and  _348
REMARK  140  A    between atoms: _348  and  _349
REMARK  141  A    between atoms: _352  and  _354
REMARK  142  A    between atoms: _354  and  _355
REMARK  143  A    between atoms: _354  and  _357
REMARK  144  A    between atoms: _357  and  _358
REMARK  145  A    between atoms: _361  and  _363
REMARK  146  A    between atoms: _363  and  _364
REMARK  147  A    between atoms: _363  and  _366
REMARK  148  A    between atoms: _366  and  _367
REMARK  149  A    between atoms: _372  and  _374
REMARK  150  A    between atoms: _374  and  _375
REMARK  151  A    between atoms: _374  and  _377
REMARK  152  A    between atoms: _377  and  _378
REMARK  153  A    between atoms: _384  and  _386
REMARK  154  A    between atoms: _386  and  _387
REMARK  155  A    between atoms: _390  and  _392
REMARK  156  A    between atoms: _392  and  _393
REMARK  157  A    between atoms: _392  and  _395
REMARK  158  A    between atoms: _395  and  _396
REMARK  159  A    between atoms: _399  and  _401
REMARK  160  A    between atoms: _401  and  _402
REMARK  161  A    between atoms: _404  and  _406
REMARK  162  A    between atoms: _406  and  _407
REMARK  163  A    between atoms: _406  and  _409
REMARK  164  A    between atoms: _409  and  _410
REMARK  165  A    between atoms: _415  and  _417
REMARK  166  A    between atoms: _417  and  _418
REMARK  167  A    between atoms: _417  and  _420
REMARK  168  A    between atoms: _420  and  _421
REMARK  169  A    between atoms: _431  and  _433
REMARK  170  A    between atoms: _433  and  _434
REMARK  171  A    between atoms: _436  and  _438
REMARK  172  A    between atoms: _438  and  _439
REMARK  173  A    between atoms: _438  and  _441
REMARK  174  A    between atoms: _443  and  _445
REMARK  175  A    between atoms: _445  and  _446
REMARK  176  A    between atoms: _448  and  _450
REMARK  177  A    between atoms: _450  and  _451
REMARK  178  A    between atoms: _454  and  _456
REMARK  179  A    between atoms: _456  and  _457
REMARK  180  A    between atoms: _456  and  _459
REMARK  181  A    between atoms: _459  and  _460
REMARK  182  A    between atoms: _466  and  _468
REMARK  183  A    between atoms: _468  and  _469
REMARK  184  A    between atoms: _471  and  _473
REMARK  185  A    between atoms: _473  and  _474
REMARK  186  A    between atoms: _476  and  _478
REMARK  187  A    between atoms: _478  and  _479
REMARK  188  A    between atoms: _482  and  _484
REMARK  189  A    between atoms: _484  and  _485
REMARK  190  A    between atoms: _484  and  _487
REMARK  191  A    between atoms: _487  and  _488
REMARK  192  A    between atoms: _488  and  _489
REMARK  193  A    between atoms: _489  and  _490
REMARK  194  A    between atoms: _490  and  _491
REMARK  195  A    between atoms: _495  and  _497
REMARK  196  A    between atoms: _497  and  _498
REMARK  197  A    between atoms: _497  and  _500
REMARK  198  A    between atoms: _500  and  _501
REMARK  199  A    between atoms: _506  and  _507
REMARK  200  A    between atoms: _509  and  _511
REMARK  201  A    between atoms: _511  and  _512
REMARK  202  A    between atoms: _511  and  _514
REMARK  203  A    between atoms: _514  and  _515
REMARK  204  A    between atoms: _521  and  _523
REMARK  205  A    between atoms: _523  and  _524
REMARK  206  A    between atoms: _523  and  _526
REMARK  207  A    between atoms: _526  and  _527
REMARK  208  A    between atoms: _530  and  _532
REMARK  209  A    between atoms: _532  and  _533
REMARK  210  A    between atoms: _532  and  _535
REMARK  211  A    between atoms: _535  and  _536
REMARK  212  A    between atoms: _542  and  _544
REMARK  213  A    between atoms: _544  and  _545
REMARK  214  A    between atoms: _547  and  _549
REMARK  215  A    between atoms: _549  and  _550
REMARK  216  A    between atoms: _549  and  _552
REMARK  217  A    between atoms: _552  and  _553
REMARK  218  A    between atoms: _556  and  _558
REMARK  219  A    between atoms: _558  and  _559
REMARK  220  A    between atoms: _558  and  _561
REMARK  221  A    between atoms: _561  and  _562
REMARK                            x       y       z     vdW  Elec       q    Type
REMARK                         _______ _______ _______ _____ _____    ______ ____
ROOT
ATOM      1  C   GLU A   5      22.464   4.210   4.604  0.00  0.00    +0.241 C 
ATOM      2  O   GLU A   5      21.256   4.429   4.484  0.00  0.00    -0.273 OA
ATOM      3  N   GLU A   6      23.384   5.103   4.271  0.00  0.00    -0.297 N 
ATOM      4  H   GLU A   6      24.392   4.851   4.322  0.00  0.00    +0.150 HD
ENDROOT
BRANCH   3   5
ATOM      5  CA  GLU A   6      22.992   6.432   3.835  0.00  0.00    +0.149 C 
BRANCH   5   6
ATOM      6  C   GLU A   6      22.301   6.357   2.493  0.00  0.00    +0.241 C 
ATOM      7  O   GLU A   6      21.312   7.058   2.281  0.00  0.00    -0.273 OA
ATOM      8  N   ILE A   7      22.755   5.479   1.595  0.00  0.00    -0.297 N 
ATOM      9  H   ILE A   7      23.594   4.899   1.797  0.00  0.00    +0.150 HD
BRANCH   8  10
ATOM     10  CA  ILE A   7      22.046   5.349   0.317  0.00  0.00    +0.149 C 
BRANCH  10  11
ATOM     11  C   ILE A   7      20.617   4.864   0.561  0.00  0.00    +0.241 C 
ATOM     12  N   ARG A   8      20.411   3.935   1.468  0.00  0.00    -0.297 N 
ATOM     13  H   ARG A   8      21.208   3.534   2.003  0.00  0.00    +0.150 HD
ATOM     14  O   ILE A   7      19.676   5.402  -0.013  0.00  0.00    -0.273 OA
BRANCH  12  15
ATOM     15  CA  ARG A   8      19.032   3.468   1.717  0.00  0.00    +0.149 C 
BRANCH  15  16
ATOM     16  C   ARG A   8      18.112   4.557   2.298  0.00  0.00    +0.241 C 
ATOM     17  N   PHE A   9      18.676   5.389   3.178  0.00  0.00    -0.298 N 
ATOM     18  H   PHE A   9      19.680   5.252   3.413  0.00  0.00    +0.150 HD
ATOM     19  O   ARG A   8      16.935   4.633   1.942  0.00  0.00    -0.273 OA
BRANCH  17  20
ATOM     20  CA  PHE A   9      17.964   6.469   3.820  0.00  0.00    +0.141 C 
BRANCH  20  21
ATOM     21  C   PHE A   9      17.642   7.575   2.834  0.00  0.00    +0.227 C 
ATOM     22  O   PHE A   9      16.670   8.327   3.026  0.00  0.00    -0.286 OA
ENDBRANCH  20  21
BRANCH  20  23
ATOM     23  CB  PHE A   9      18.754   7.034   5.007  0.00  0.00    +0.054 C 
BRANCH  23  24
ATOM     24  CG  PHE A   9      18.514   6.316   6.336  0.00  0.00    -0.020 A 
ATOM     25  CD2 PHE A   9      18.172   7.035   7.484  0.00  0.00    -0.004 A 
ATOM     26  CE2 PHE A   9      17.955   6.368   8.730  0.00  0.00    -0.000 A 
ATOM     27  CZ  PHE A   9      18.126   4.992   8.813  0.00  0.00    -0.000 A 
ATOM     28  CE1 PHE A   9      18.488   4.275   7.665  0.00  0.00    -0.000 A 
ATOM     29  CD1 PHE A   9      18.695   4.926   6.452  0.00  0.00    -0.004 A 
ENDBRANCH  23  24
ENDBRANCH  20  23
ENDBRANCH  17  20
ENDBRANCH  15  16
BRANCH  15  30
ATOM     30  CB  ARG A   8      18.994   2.227   2.593  0.00  0.00    +0.033 C 
BRANCH  30  31
ATOM     31  CG  ARG A   8      17.658   1.483   2.548  0.00  0.00    +0.045 C 
BRANCH  31  32
ATOM     32  CD  ARG A   8      17.523   0.743   1.235  0.00  0.00    +0.174 C 
BRANCH  32  33
ATOM     33  NE  ARG A   8      16.161   0.339   0.876  0.00  0.00    -0.265 N 
ATOM     34  CZ  ARG A   8      15.616  -0.841   1.162  0.00  0.00    +0.342 C 
ATOM     35  NH2 ARG A   8      16.265  -1.739   1.886  0.00  0.00    -0.292 N 
ATOM     36 HH21 ARG A   8      17.219  -1.528   2.243  0.00  0.00    +0.255 HD
ATOM     37 HH22 ARG A   8      15.821  -2.655   2.098  0.00  0.00    +0.255 HD
ATOM     38  NH1 ARG A   8      14.385  -1.106   0.780  0.00  0.00    -0.292 N 
ATOM     39 HH11 ARG A   8      13.958  -2.028   1.003  0.00  0.00    +0.255 HD
ATOM     40 HH12 ARG A   8      13.839  -0.394   0.255  0.00  0.00    +0.255 HD
ATOM     41  HE  ARG A   8      15.576   1.026   0.359  0.00  0.00    +0.259 HD
ENDBRANCH  32  33
ENDBRANCH  31  32
ENDBRANCH  30  31
ENDBRANCH  15  30
ENDBRANCH  12  15
ENDBRANCH  10  11
BRANCH  10  42
ATOM     42  CB  ILE A   7      22.788   4.497  -0.713  0.00  0.00    +0.027 C 
ATOM     43  CG2 ILE A   7      21.918   4.245  -1.931  0.00  0.00    +0.002 C 
BRANCH  42  44
ATOM     44  CG1 ILE A   7      24.090   5.211  -1.132  0.00  0.00    +0.002 C 
ATOM     45  CD1 ILE A   7      25.131   4.296  -1.668  0.00  0.00    +0.000 C 
ENDBRANCH  42  44
ENDBRANCH  10  42
ENDBRANCH   8  10
ENDBRANCH   5   6
BRANCH   5  46
ATOM     46  CB  GLU A   6      24.184   7.391   3.774  0.00  0.00    +0.041 C 
BRANCH  46  47
ATOM     47  CG  GLU A   6      24.823   7.638   5.148  0.00  0.00    +0.116 C 
BRANCH  47  48
ATOM     48  CD  GLU A   6      26.047   6.773   5.450  0.00  0.00    +0.365 C 
ATOM     49  OE2 GLU A   6      26.806   7.127   6.404  0.00  0.00    -0.246 OA
ATOM     50  OE1 GLU A   6      26.250   5.739   4.765  0.00  0.00    -0.246 OA
ENDBRANCH  47  48
ENDBRANCH  46  47
ENDBRANCH   5  46
ENDBRANCH   3   5
BRANCH   1  51
ATOM     51  CA  GLU A   5      22.939   2.870   5.173  0.00  0.00    +0.149 C 
BRANCH  51  53
ATOM     52  C   GLN A   4      23.824   1.940   3.134  0.00  0.00    +0.241 C 
ATOM     53  N   GLU A   5      24.026   2.291   4.401  0.00  0.00    -0.297 N 
ATOM     54  H   GLU A   5      24.959   2.152   4.838  0.00  0.00    +0.150 HD
ATOM     55  O   GLN A   4      22.701   2.010   2.602  0.00  0.00    -0.273 OA
BRANCH  52  56
ATOM     56  CA  GLN A   4      25.003   1.394   2.336  0.00  0.00    +0.149 C 
BRANCH  56  58
ATOM     57  C   VAL A   3      26.238   3.471   1.997  0.00  0.00    +0.241 C 
ATOM     58  N   GLN A   4      26.231   2.194   2.383  0.00  0.00    -0.297 N 
ATOM     59  H   GLN A   4      27.112   1.758   2.723  0.00  0.00    +0.150 HD
ATOM     60  O   VAL A   3      25.201   4.098   1.778  0.00  0.00    -0.273 OA
BRANCH  57  61
ATOM     61  CA  VAL A   3      27.561   4.153   1.749  0.00  0.00    +0.149 C 
BRANCH  61  63
ATOM     62  C   LEU A   2      27.456   6.450   0.982  0.00  0.00    +0.241 C 
ATOM     63  N   VAL A   3      27.437   5.602   1.996  0.00  0.00    -0.297 N 
ATOM     64  H   VAL A   3      27.335   5.957   2.968  0.00  0.00    +0.150 HD
ATOM     65  O   LEU A   2      27.663   6.088  -0.203  0.00  0.00    -0.273 OA
BRANCH  62  66
ATOM     66  CA  LEU A   2      27.160   7.921   1.316  0.00  0.00    +0.149 C 
BRANCH  66  69
ATOM     67  C   GLY A   1      27.293   9.307   3.297  0.00  0.00    +0.240 C 
ATOM     68  O   GLY A   1      26.289   9.938   2.968  0.00  0.00    -0.274 OA
ATOM     69  N   LEU A   2      27.798   8.348   2.556  0.00  0.00    -0.297 N 
ATOM     70  H   LEU A   2      28.676   7.881   2.861  0.00  0.00    +0.150 HD
BRANCH  67  71
ATOM     71  CA  GLY A   1      28.025   9.637   4.592  0.00  0.00    +0.169 C 
BRANCH  71  72
ATOM     72  N   GLY A   1      28.095  11.089   4.824  0.00  0.00    -0.236 NA
ATOM     73  H   GLY A   1      27.579  11.504   5.626  0.00  0.00    +0.142 HD
ENDBRANCH  71  72
ENDBRANCH  67  71
ENDBRANCH  66  69
BRANCH  66  74
ATOM     74  CB  LEU A   2      27.582   8.834   0.160  0.00  0.00    +0.029 C 
BRANCH  74  75
ATOM     75  CG  LEU A   2      26.704   8.931  -1.075  0.00  0.00    +0.002 C 
ATOM     76  CD2 LEU A   2      25.166   8.833  -0.717  0.00  0.00    +0.000 C 
ATOM     77  CD1 LEU A   2      27.043  10.251  -1.810  0.00  0.00    +0.000 C 
ENDBRANCH  74  75
ENDBRANCH  66  74
ENDBRANCH  62  66
ENDBRANCH  61  63
BRANCH  61  78
ATOM     78  CB  VAL A   3      28.751   3.530   2.442  0.00  0.00    +0.027 C 
ATOM     79  CG2 VAL A   3      28.755   3.800   3.940  0.00  0.00    +0.002 C 
ATOM     80  CG1 VAL A   3      30.009   4.063   1.793  0.00  0.00    +0.002 C 
ENDBRANCH  61  78
ENDBRANCH  57  61
ENDBRANCH  56  58
BRANCH  56  81
ATOM     81  CB  GLN A   4      25.291  -0.067   2.706  0.00  0.00    +0.039 C 
BRANCH  81  82
ATOM     82  CG  GLN A   4      24.125  -1.079   2.361  0.00  0.00    +0.087 C 
BRANCH  82  83
ATOM     83  CD  GLN A   4      23.267  -1.409   3.564  0.00  0.00    +0.219 C 
ATOM     84  OE1 GLN A   4      23.508  -0.910   4.654  0.00  0.00    -0.275 OA
ATOM     85  NE2 GLN A   4      22.236  -2.221   3.374  0.00  0.00    -0.329 N 
ATOM     86 HE21 GLN A   4      21.603  -2.451   4.166  0.00  0.00    +0.145 HD
ATOM     87 HE22 GLN A   4      22.061  -2.628   2.433  0.00  0.00    +0.145 HD
ENDBRANCH  82  83
ENDBRANCH  81  82
ENDBRANCH  56  81
ENDBRANCH  52  56
ENDBRANCH  51  53
BRANCH  51  88
ATOM     88  CB  GLU A   5      23.301   3.063   6.662  0.00  0.00    +0.041 C 
BRANCH  88  89
ATOM     89  CG  GLU A   5      22.140   3.640   7.433  0.00  0.00    +0.116 C 
BRANCH  89  90
ATOM     90  CD  GLU A   5      22.348   3.606   8.958  0.00  0.00    +0.365 C 
ATOM     91  OE2 GLU A   5      21.402   3.307   9.704  0.00  0.00    -0.246 OA
ATOM     92  OE1 GLU A   5      23.432   3.925   9.429  0.00  0.00    -0.246 OA
ENDBRANCH  89  90
ENDBRANCH  88  89
ENDBRANCH  51  88
ENDBRANCH   1  51
TORSDOF 38
REMARK  Name = ../refined-set-2016/4b1j/4b1j_pocket.pdb
REMARK  221 active torsions:
REMARK  status: ('A' for Active; 'I' for Inactive)
REMARK    1  A    between atoms: _1  and  _3
REMARK    2  A    between atoms: _3  and  _4
REMARK    3  A    between atoms: _3  and  _6
REMARK    4  A    between atoms: _6  and  _7
REMARK    5  A    between atoms: _7  and  _8
REMARK    6  A    between atoms: _11  and  _13
REMARK    7  A    between atoms: _13  and  _14
REMARK    8  A    between atoms: _16  and  _18
REMARK    9  A    between atoms: _18  and  _19
REMARK   10  A    between atoms: _18  and  _21
REMARK   11  A    between atoms: _21  and  _22
REMARK   12  A    between atoms: _25  and  _27
REMARK   13  A    between atoms: _27  and  _28
REMARK   14  A    between atoms: _27  and  _30
REMARK   15  A    between atoms: _30  and  _31
REMARK   16  A    between atoms: _34  and  _36
REMARK   17  A    between atoms: _36  and  _37
REMARK   18  A    between atoms: _36  and  _39
REMARK   19  A    between atoms: _39  and  _40
REMARK   20  A    between atoms: _40  and  _41
REMARK   21  A    between atoms: _44  and  _46
REMARK   22  A    between atoms: _46  and  _47
REMARK   23  A    between atoms: _46  and  _49
REMARK   24  A    between atoms: _49  and  _50
REMARK   25  A    between atoms: _50  and  _51
REMARK   26  A    between atoms: _54  and  _56
REMARK   27  A    between atoms: _56  and  _57
REMARK   28  A    between atoms: _56  and  _59
REMARK   29  A    between atoms: _59  and  _60
REMARK   30  A    between atoms: _65  and  _67
REMARK   31  A    between atoms: _67  and  _68
REMARK   32  A    between atoms: _67  and  _70
REMARK   33  A    between atoms: _73  and  _75
REMARK   34  A    between atoms: _75  and  _76
REMARK   35  A    between atoms: _75  and  _78
REMARK   36  A    between atoms: _78  and  _79
REMARK   37  A    between atoms: _82  and  _84
REMARK   38  A    between atoms: _84  and  _85
REMARK   39  A    between atoms: _84  and  _87
REMARK   40  A    between atoms: _87  and  _88
REMARK   41  A    between atoms: _94  and  _96
REMARK   42  A    between atoms: _96  and  _97
REMARK   43  A    between atoms: _100  and  _102
REMARK   44  A    between atoms: _102  and  _103
REMARK   45  A    between atoms: _102  and  _105
REMARK   46  A    between atoms: _105  and  _106
REMARK   47  A    between atoms: _111  and  _113
REMARK   48  A    between atoms: _113  and  _114
REMARK   49  A    between atoms: _113  and  _116
REMARK   50  A    between atoms: _116  and  _117
REMARK   51  A    between atoms: _117  and  _118
REMARK   52  A    between atoms: _118  and  _119
REMARK   53  A    between atoms: _128  and  _130
REMARK   54  A    between atoms: _130  and  _131
REMARK   55  A    between atoms: _130  and  _133
REMARK   56  A    between atoms: _133  and  _134
REMARK   57  A    between atoms: _140  and  _142
REMARK   58  A    between atoms: _142  and  _143
REMARK   59  A    between atoms: _142  and  _145
REMARK   60  A    between atoms: _148  and  _150
REMARK   61  A    between atoms: _150  and  _151
REMARK   62  A    between atoms: _153  and  _155
REMARK   63  A    between atoms: _155  and  _156
REMARK   64  A    between atoms: _158  and  _160
REMARK   65  A    between atoms: _160  and  _161
REMARK   66  A    between atoms: _163  and  _165
REMARK   67  A    between atoms: _165  and  _166
REMARK   68  A    between atoms: _165  and  _168
REMARK   69  A    between atoms: _171  and  _173
REMARK   70  A    between atoms: _173  and  _174
REMARK   71  A    between atoms: _176  and  _178
REMARK   72  A    between atoms: _178  and  _179
REMARK   73  A    between atoms: _178  and  _181
REMARK   74  A    between atoms: _181  and  _182
REMARK   75  A    between atoms: _185  and  _187
REMARK   76  A    between atoms: _187  and  _188
REMARK   77  A    between atoms: _187  and  _190
REMARK   78  A    between atoms: _193  and  _195
REMARK   79  A    between atoms: _195  and  _196
REMARK   80  A    between atoms: _195  and  _198
REMARK   81  A    between atoms: _198  and  _199
REMARK   82  A    between atoms: _199  and  _200
REMARK   83  A    between atoms: _205  and  _207
REMARK   84  A    between atoms: _207  and  _208
REMARK   85  A    between atoms: _207  and  _210
REMARK   86  A    between atoms: _210  and  _211
REMARK   87  A    between atoms: _211  and  _212
REMARK   88  A    between atoms: _215  and  _217
REMARK   89  A    between atoms: _217  and  _218
REMARK   90  A    between atoms: _217  and  _220
REMARK   91  A    between atoms: _220  and  _221
REMARK   92  A    between atoms: _221  and  _222
REMARK   93  A    between atoms: _225  and  _227
REMARK   94  A    between atoms: _227  and  _228
REMARK   95  A    between atoms: _227  and  _230
REMARK   96  A    between atoms: _230  and  _231
REMARK   97  A    between atoms: _234  and  _236
REMARK   98  A    between atoms: _236  and  _237
REMARK   99  A    between atoms: _236  and  _239
REMARK  100  A    between atoms: _239  and  _240
REMARK  101  A    between atoms: _240  and  _241
REMARK  102  A    between atoms: _241  and  _242
REMARK  103  A    between atoms: _251  and  _253
REMARK  104  A    between atoms: _253  and  _254
REMARK  105  A    between atoms: _253  and  _256
REMARK  106  A    between atoms: _256  and  _257
REMARK  107  A    between atoms: _263  and  _265
REMARK  108  A    between atoms: _265  and  _266
REMARK  109  A    between atoms: _265  and  _268
REMARK  110  A    between atoms: _268  and  _269
REMARK  111  A    between atoms: _272  and  _274
REMARK  112  A    between atoms: _274  and  _275
REMARK  113  A    between atoms: _274  and  _277
REMARK  114  A    between atoms: _277  and  _278
REMARK  115  A    between atoms: _278  and  _279
REMARK  116  A    between atoms: _279  and  _280
REMARK  117  A    between atoms: _289  and  _291
REMARK  118  A    between atoms: _291  and  _292
REMARK  119  A    between atoms: _291  and  _294
REMARK  120  A    between atoms: _294  and  _295
REMARK  121  A    between atoms: _300  and  _301
REMARK  122  A    between atoms: _303  and  _305
REMARK  123  A    between atoms: _305  and  _306
REMARK  124  A    between atoms: _308  and  _310
REMARK  125  A    between atoms: _310  and  _311
REMARK  126  A    between atoms: _310  and  _313
REMARK  127  A    between atoms: _313  and  _314
REMARK  128  A    between atoms: _319  and  _320
REMARK  129  A    between atoms: _322  and  _324
REMARK  130  A    between atoms: _324  and  _325
REMARK  131  A    between atoms: _328  and  _330
REMARK  132  A    between atoms: _330  and  _331
REMARK  133  A    between atoms: _330  and  _333
REMARK  134  A    between atoms: _333  and  _334
REMARK  135  A    between atoms: _337  and  _339
REMARK  136  A    between atoms: _339  and  _340
REMARK  137  A    between atoms: _339  and  _342
REMARK  138  A    between atoms: _342  and  _343
REMARK  139  A    between atoms: _346  and  _348
REMARK  140  A    between atoms: _348  and  _349
REMARK  141  A    between atoms: _352  and  _354
REMARK  142  A    between atoms: _354  and  _355
REMARK  143  A    between atoms: _354  and  _357
REMARK  144  A    between atoms: _357  and  _358
REMARK  145  A    between atoms: _361  and  _363
REMARK  146  A    between atoms: _363  and  _364
REMARK  147  A    between atoms: _363  and  _366
REMARK  148  A    between atoms: _366  and  _367
REMARK  149  A    between atoms: _372  and  _374
REMARK  150  A    between atoms: _374  and  _375
REMARK  151  A    between atoms: _374  and  _377
REMARK  152  A    between atoms: _377  and  _378
REMARK  153  A    between atoms: _384  and  _386
REMARK  154  A    between atoms: _386  and  _387
REMARK  155  A    between atoms: _390  and  _392
REMARK  156  A    between atoms: _392  and  _393
REMARK  157  A    between atoms: _392  and  _395
REMARK  158  A    between atoms: _395  and  _396
REMARK  159  A    between atoms: _399  and  _401
REMARK  160  A    between atoms: _401  and  _402
REMARK  161  A    between atoms: _404  and  _406
REMARK  162  A    between atoms: _406  and  _407
REMARK  163  A    between atoms: _406  and  _409
REMARK  164  A    between atoms: _409  and  _410
REMARK  165  A    between atoms: _415  and  _417
REMARK  166  A    between atoms: _417  and  _418
REMARK  167  A    between atoms: _417  and  _420
REMARK  168  A    between atoms: _420  and  _421
REMARK  169  A    between atoms: _431  and  _433
REMARK  170  A    between atoms: _433  and  _434
REMARK  171  A    between atoms: _436  and  _438
REMARK  172  A    between atoms: _438  and  _439
REMARK  173  A    between atoms: _438  and  _441
REMARK  174  A    between atoms: _443  and  _445
REMARK  175  A    between atoms: _445  and  _446
REMARK  176  A    between atoms: _448  and  _450
REMARK  177  A    between atoms: _450  and  _451
REMARK  178  A    between atoms: _454  and  _456
REMARK  179  A    between atoms: _456  and  _457
REMARK  180  A    between atoms: _456  and  _459
REMARK  181  A    between atoms: _459  and  _460
REMARK  182  A    between atoms: _466  and  _468
REMARK  183  A    between atoms: _468  and  _469
REMARK  184  A    between atoms: _471  and  _473
REMARK  185  A    between atoms: _473  and  _474
REMARK  186  A    between atoms: _476  and  _478
REMARK  187  A    between atoms: _478  and  _479
REMARK  188  A    between atoms: _482  and  _484
REMARK  189  A    between atoms: _484  and  _485
REMARK  190  A    between atoms: _484  and  _487
REMARK  191  A    between atoms: _487  and  _488
REMARK  192  A    between atoms: _488  and  _489
REMARK  193  A    between atoms: _489  and  _490
REMARK  194  A    between atoms: _490  and  _491
REMARK  195  A    between atoms: _495  and  _497
REMARK  196  A    between atoms: _497  and  _498
REMARK  197  A    between atoms: _497  and  _500
REMARK  198  A    between atoms: _500  and  _501
REMARK  199  A    between atoms: _506  and  _507
REMARK  200  A    between atoms: _509  and  _511
REMARK  201  A    between atoms: _511  and  _512
REMARK  202  A    between atoms: _511  and  _514
REMARK  203  A    between atoms: _514  and  _515
REMARK  204  A    between atoms: _521  and  _523
REMARK  205  A    between atoms: _523  and  _524
REMARK  206  A    between atoms: _523  and  _526
REMARK  207  A    between atoms: _526  and  _527
REMARK  208  A    between atoms: _530  and  _532
REMARK  209  A    between atoms: _532  and  _533
REMARK  210  A    between atoms: _532  and  _535
REMARK  211  A    between atoms: _535  and  _536
REMARK  212  A    between atoms: _542  and  _544
REMARK  213  A    between atoms: _544  and  _545
REMARK  214  A    between atoms: _547  and  _549
REMARK  215  A    between atoms: _549  and  _550
REMARK  216  A    between atoms: _549  and  _552
REMARK  217  A    between atoms: _552  and  _553
REMARK  218  A    between atoms: _556  and  _558
REMARK  219  A    between atoms: _558  and  _559
REMARK  220  A    between atoms: _558  and  _561
REMARK  221  A    between atoms: _561  and  _562
REMARK                            x       y       z     vdW  Elec       q    Type
REMARK                         _______ _______ _______ _____ _____    ______ ____
ROOT
ATOM      1  CA  ILE A   1      16.179   6.547  -1.592  0.00  0.00    +0.133 C 
ENDROOT
BRANCH   1   2
ATOM      2  N   ILE A   1      17.140   7.006  -0.619  0.00  0.00    -0.239 NA
ATOM      3  H   ILE A   1      17.833   6.342  -0.219  0.00  0.00    +0.142 HD
ENDBRANCH   1   2
BRANCH   1   4
ATOM      4  C   ILE A   1      14.847   6.256  -0.967  0.00  0.00    +0.224 C 
ATOM      5  O   ILE A   1      13.858   6.318  -1.672  0.00  0.00    -0.287 OA
ENDBRANCH   1   4
BRANCH   1   6
ATOM      6  CB  ILE A   1      16.660   5.361  -2.478  0.00  0.00    +0.023 C 
ATOM      7  CG2 ILE A   1      17.871   5.780  -3.300  0.00  0.00    +0.002 C 
BRANCH   6   8
ATOM      8  CG1 ILE A   1      16.924   4.099  -1.678  0.00  0.00    +0.002 C 
ATOM      9  CD1 ILE A   1      17.450   2.982  -2.593  0.00  0.00    +0.000 C 
ENDBRANCH   6   8
ENDBRANCH   1   6
TORSDOF 4
REMARK  Name = ../refined-set-2016/4b1j/4b1j_pocket.pdb
REMARK  221 active torsions:
REMARK  status: ('A' for Active; 'I' for Inactive)
REMARK    1  A    between atoms: _1  and  _3
REMARK    2  A    between atoms: _3  and  _4
REMARK    3  A    between atoms: _3  and  _6
REMARK    4  A    between atoms: _6  and  _7
REMARK    5  A    between atoms: _7  and  _8
REMARK    6  A    between atoms: _11  and  _13
REMARK    7  A    between atoms: _13  and  _14
REMARK    8  A    between atoms: _16  and  _18
REMARK    9  A    between atoms: _18  and  _19
REMARK   10  A    between atoms: _18  and  _21
REMARK   11  A    between atoms: _21  and  _22
REMARK   12  A    between atoms: _25  and  _27
REMARK   13  A    between atoms: _27  and  _28
REMARK   14  A    between atoms: _27  and  _30
REMARK   15  A    between atoms: _30  and  _31
REMARK   16  A    between atoms: _34  and  _36
REMARK   17  A    between atoms: _36  and  _37
REMARK   18  A    between atoms: _36  and  _39
REMARK   19  A    between atoms: _39  and  _40
REMARK   20  A    between atoms: _40  and  _41
REMARK   21  A    between atoms: _44  and  _46
REMARK   22  A    between atoms: _46  and  _47
REMARK   23  A    between atoms: _46  and  _49
REMARK   24  A    between atoms: _49  and  _50
REMARK   25  A    between atoms: _50  and  _51
REMARK   26  A    between atoms: _54  and  _56
REMARK   27  A    between atoms: _56  and  _57
REMARK   28  A    between atoms: _56  and  _59
REMARK   29  A    between atoms: _59  and  _60
REMARK   30  A    between atoms: _65  and  _67
REMARK   31  A    between atoms: _67  and  _68
REMARK   32  A    between atoms: _67  and  _70
REMARK   33  A    between atoms: _73  and  _75
REMARK   34  A    between atoms: _75  and  _76
REMARK   35  A    between atoms: _75  and  _78
REMARK   36  A    between atoms: _78  and  _79
REMARK   37  A    between atoms: _82  and  _84
REMARK   38  A    between atoms: _84  and  _85
REMARK   39  A    between atoms: _84  and  _87
REMARK   40  A    between atoms: _87  and  _88
REMARK   41  A    between atoms: _94  and  _96
REMARK   42  A    between atoms: _96  and  _97
REMARK   43  A    between atoms: _100  and  _102
REMARK   44  A    between atoms: _102  and  _103
REMARK   45  A    between atoms: _102  and  _105
REMARK   46  A    between atoms: _105  and  _106
REMARK   47  A    between atoms: _111  and  _113
REMARK   48  A    between atoms: _113  and  _114
REMARK   49  A    between atoms: _113  and  _116
REMARK   50  A    between atoms: _116  and  _117
REMARK   51  A    between atoms: _117  and  _118
REMARK   52  A    between atoms: _118  and  _119
REMARK   53  A    between atoms: _128  and  _130
REMARK   54  A    between atoms: _130  and  _131
REMARK   55  A    between atoms: _130  and  _133
REMARK   56  A    between atoms: _133  and  _134
REMARK   57  A    between atoms: _140  and  _142
REMARK   58  A    between atoms: _142  and  _143
REMARK   59  A    between atoms: _142  and  _145
REMARK   60  A    between atoms: _148  and  _150
REMARK   61  A    between atoms: _150  and  _151
REMARK   62  A    between atoms: _153  and  _155
REMARK   63  A    between atoms: _155  and  _156
REMARK   64  A    between atoms: _158  and  _160
REMARK   65  A    between atoms: _160  and  _161
REMARK   66  A    between atoms: _163  and  _165
REMARK   67  A    between atoms: _165  and  _166
REMARK   68  A    between atoms: _165  and  _168
REMARK   69  A    between atoms: _171  and  _173
REMARK   70  A    between atoms: _173  and  _174
REMARK   71  A    between atoms: _176  and  _178
REMARK   72  A    between atoms: _178  and  _179
REMARK   73  A    between atoms: _178  and  _181
REMARK   74  A    between atoms: _181  and  _182
REMARK   75  A    between atoms: _185  and  _187
REMARK   76  A    between atoms: _187  and  _188
REMARK   77  A    between atoms: _187  and  _190
REMARK   78  A    between atoms: _193  and  _195
REMARK   79  A    between atoms: _195  and  _196
REMARK   80  A    between atoms: _195  and  _198
REMARK   81  A    between atoms: _198  and  _199
REMARK   82  A    between atoms: _199  and  _200
REMARK   83  A    between atoms: _205  and  _207
REMARK   84  A    between atoms: _207  and  _208
REMARK   85  A    between atoms: _207  and  _210
REMARK   86  A    between atoms: _210  and  _211
REMARK   87  A    between atoms: _211  and  _212
REMARK   88  A    between atoms: _215  and  _217
REMARK   89  A    between atoms: _217  and  _218
REMARK   90  A    between atoms: _217  and  _220
REMARK   91  A    between atoms: _220  and  _221
REMARK   92  A    between atoms: _221  and  _222
REMARK   93  A    between atoms: _225  and  _227
REMARK   94  A    between atoms: _227  and  _228
REMARK   95  A    between atoms: _227  and  _230
REMARK   96  A    between atoms: _230  and  _231
REMARK   97  A    between atoms: _234  and  _236
REMARK   98  A    between atoms: _236  and  _237
REMARK   99  A    between atoms: _236  and  _239
REMARK  100  A    between atoms: _239  and  _240
REMARK  101  A    between atoms: _240  and  _241
REMARK  102  A    between atoms: _241  and  _242
REMARK  103  A    between atoms: _251  and  _253
REMARK  104  A    between atoms: _253  and  _254
REMARK  105  A    between atoms: _253  and  _256
REMARK  106  A    between atoms: _256  and  _257
REMARK  107  A    between atoms: _263  and  _265
REMARK  108  A    between atoms: _265  and  _266
REMARK  109  A    between atoms: _265  and  _268
REMARK  110  A    between atoms: _268  and  _269
REMARK  111  A    between atoms: _272  and  _274
REMARK  112  A    between atoms: _274  and  _275
REMARK  113  A    between atoms: _274  and  _277
REMARK  114  A    between atoms: _277  and  _278
REMARK  115  A    between atoms: _278  and  _279
REMARK  116  A    between atoms: _279  and  _280
REMARK  117  A    between atoms: _289  and  _291
REMARK  118  A    between atoms: _291  and  _292
REMARK  119  A    between atoms: _291  and  _294
REMARK  120  A    between atoms: _294  and  _295
REMARK  121  A    between atoms: _300  and  _301
REMARK  122  A    between atoms: _303  and  _305
REMARK  123  A    between atoms: _305  and  _306
REMARK  124  A    between atoms: _308  and  _310
REMARK  125  A    between atoms: _310  and  _311
REMARK  126  A    between atoms: _310  and  _313
REMARK  127  A    between atoms: _313  and  _314
REMARK  128  A    between atoms: _319  and  _320
REMARK  129  A    between atoms: _322  and  _324
REMARK  130  A    between atoms: _324  and  _325
REMARK  131  A    between atoms: _328  and  _330
REMARK  132  A    between atoms: _330  and  _331
REMARK  133  A    between atoms: _330  and  _333
REMARK  134  A    between atoms: _333  and  _334
REMARK  135  A    between atoms: _337  and  _339
REMARK  136  A    between atoms: _339  and  _340
REMARK  137  A    between atoms: _339  and  _342
REMARK  138  A    between atoms: _342  and  _343
REMARK  139  A    between atoms: _346  and  _348
REMARK  140  A    between atoms: _348  and  _349
REMARK  141  A    between atoms: _352  and  _354
REMARK  142  A    between atoms: _354  and  _355
REMARK  143  A    between atoms: _354  and  _357
REMARK  144  A    between atoms: _357  and  _358
REMARK  145  A    between atoms: _361  and  _363
REMARK  146  A    between atoms: _363  and  _364
REMARK  147  A    between atoms: _363  and  _366
REMARK  148  A    between atoms: _366  and  _367
REMARK  149  A    between atoms: _372  and  _374
REMARK  150  A    between atoms: _374  and  _375
REMARK  151  A    between atoms: _374  and  _377
REMARK  152  A    between atoms: _377  and  _378
REMARK  153  A    between atoms: _384  and  _386
REMARK  154  A    between atoms: _386  and  _387
REMARK  155  A    between atoms: _390  and  _392
REMARK  156  A    between atoms: _392  and  _393
REMARK  157  A    between atoms: _392  and  _395
REMARK  158  A    between atoms: _395  and  _396
REMARK  159  A    between atoms: _399  and  _401
REMARK  160  A    between atoms: _401  and  _402
REMARK  161  A    between atoms: _404  and  _406
REMARK  162  A    between atoms: _406  and  _407
REMARK  163  A    between atoms: _406  and  _409
REMARK  164  A    between atoms: _409  and  _410
REMARK  165  A    between atoms: _415  and  _417
REMARK  166  A    between atoms: _417  and  _418
REMARK  167  A    between atoms: _417  and  _420
REMARK  168  A    between atoms: _420  and  _421
REMARK  169  A    between atoms: _431  and  _433
REMARK  170  A    between atoms: _433  and  _434
REMARK  171  A    between atoms: _436  and  _438
REMARK  172  A    between atoms: _438  and  _439
REMARK  173  A    between atoms: _438  and  _441
REMARK  174  A    between atoms: _443  and  _445
REMARK  175  A    between atoms: _445  and  _446
REMARK  176  A    between atoms: _448  and  _450
REMARK  177  A    between atoms: _450  and  _451
REMARK  178  A    between atoms: _454  and  _456
REMARK  179  A    between atoms: _456  and  _457
REMARK  180  A    between atoms: _456  and  _459
REMARK  181  A    between atoms: _459  and  _460
REMARK  182  A    between atoms: _466  and  _468
REMARK  183  A    between atoms: _468  and  _469
REMARK  184  A    between atoms: _471  and  _473
REMARK  185  A    between atoms: _473  and  _474
REMARK  186  A    between atoms: _476  and  _478
REMARK  187  A    between atoms: _478  and  _479
REMARK  188  A    between atoms: _482  and  _484
REMARK  189  A    between atoms: _484  and  _485
REMARK  190  A    between atoms: _484  and  _487
REMARK  191  A    between atoms: _487  and  _488
REMARK  192  A    between atoms: _488  and  _489
REMARK  193  A    between atoms: _489  and  _490
REMARK  194  A    between atoms: _490  and  _491
REMARK  195  A    between atoms: _495  and  _497
REMARK  196  A    between atoms: _497  and  _498
REMARK  197  A    between atoms: _497  and  _500
REMARK  198  A    between atoms: _500  and  _501
REMARK  199  A    between atoms: _506  and  _507
REMARK  200  A    between atoms: _509  and  _511
REMARK  201  A    between atoms: _511  and  _512
REMARK  202  A    between atoms: _511  and  _514
REMARK  203  A    between atoms: _514  and  _515
REMARK  204  A    between atoms: _521  and  _523
REMARK  205  A    between atoms: _523  and  _524
REMARK  206  A    between atoms: _523  and  _526
REMARK  207  A    between atoms: _526  and  _527
REMARK  208  A    between atoms: _530  and  _532
REMARK  209  A    between atoms: _532  and  _533
REMARK  210  A    between atoms: _532  and  _535
REMARK  211  A    between atoms: _535  and  _536
REMARK  212  A    between atoms: _542  and  _544
REMARK  213  A    between atoms: _544  and  _545
REMARK  214  A    between atoms: _547  and  _549
REMARK  215  A    between atoms: _549  and  _550
REMARK  216  A    between atoms: _549  and  _552
REMARK  217  A    between atoms: _552  and  _553
REMARK  218  A    between atoms: _556  and  _558
REMARK  219  A    between atoms: _558  and  _559
REMARK  220  A    between atoms: _558  and  _561
REMARK  221  A    between atoms: _561  and  _562
REMARK                            x       y       z     vdW  Elec       q    Type
REMARK                         _______ _______ _______ _____ _____    ______ ____
ROOT
ATOM      1  NE  ARG A   1      20.084  11.251  10.595  0.00  0.00    -0.265 N 
ATOM      2  CZ  ARG A   1      21.368  10.933  10.748  0.00  0.00    +0.342 C 
ATOM      3  NH2 ARG A   1      21.754   9.689  10.888  0.00  0.00    -0.292 N 
ATOM      4 HH21 ARG A   1      22.763   9.468  11.006  0.00  0.00    +0.255 HD
ATOM      5 HH22 ARG A   1      21.051   8.923  10.881  0.00  0.00    +0.255 HD
ATOM      6  NH1 ARG A   1      22.293  11.884  10.760  0.00  0.00    -0.292 N 
ATOM      7 HH11 ARG A   1      23.295  11.633  10.880  0.00  0.00    +0.255 HD
ATOM      8 HH12 ARG A   1      22.016  12.880  10.650  0.00  0.00    +0.255 HD
ATOM      9  HE  ARG A   1      19.851  12.263  10.537  0.00  0.00    +0.259 HD
ENDROOT
BRANCH   1  10
ATOM     10  CD  ARG A   1      18.968  10.304  10.501  0.00  0.00    +0.174 C 
BRANCH  10  11
ATOM     11  CG  ARG A   1      18.466   9.800  11.836  0.00  0.00    +0.045 C 
BRANCH  11  12
ATOM     12  CB  ARG A   1      17.630  10.779  12.616  0.00  0.00    +0.029 C 
BRANCH  12  13
ATOM     13  CA  ARG A   1      16.726  10.086  13.656  0.00  0.00    +0.133 C 
BRANCH  13  14
ATOM     14  N   ARG A   1      15.678   9.311  12.993  0.00  0.00    -0.239 NA
ATOM     15  H   ARG A   1      15.530   9.432  11.971  0.00  0.00    +0.142 HD
ENDBRANCH  13  14
BRANCH  13  16
ATOM     16  C   ARG A   1      16.193  11.082  14.675  0.00  0.00    +0.224 C 
ATOM     17  O   ARG A   1      16.887  11.466  15.600  0.00  0.00    -0.287 OA
ENDBRANCH  13  16
ENDBRANCH  12  13
ENDBRANCH  11  12
ENDBRANCH  10  11
ENDBRANCH   1  10
TORSDOF 6
REMARK  Name = ../refined-set-2016/4b1j/4b1j_pocket.pdb
REMARK  221 active torsions:
REMARK  status: ('A' for Active; 'I' for Inactive)
REMARK    1  A    between atoms: _1  and  _3
REMARK    2  A    between atoms: _3  and  _4
REMARK    3  A    between atoms: _3  and  _6
REMARK    4  A    between atoms: _6  and  _7
REMARK    5  A    between atoms: _7  and  _8
REMARK    6  A    between atoms: _11  and  _13
REMARK    7  A    between atoms: _13  and  _14
REMARK    8  A    between atoms: _16  and  _18
REMARK    9  A    between atoms: _18  and  _19
REMARK   10  A    between atoms: _18  and  _21
REMARK   11  A    between atoms: _21  and  _22
REMARK   12  A    between atoms: _25  and  _27
REMARK   13  A    between atoms: _27  and  _28
REMARK   14  A    between atoms: _27  and  _30
REMARK   15  A    between atoms: _30  and  _31
REMARK   16  A    between atoms: _34  and  _36
REMARK   17  A    between atoms: _36  and  _37
REMARK   18  A    between atoms: _36  and  _39
REMARK   19  A    between atoms: _39  and  _40
REMARK   20  A    between atoms: _40  and  _41
REMARK   21  A    between atoms: _44  and  _46
REMARK   22  A    between atoms: _46  and  _47
REMARK   23  A    between atoms: _46  and  _49
REMARK   24  A    between atoms: _49  and  _50
REMARK   25  A    between atoms: _50  and  _51
REMARK   26  A    between atoms: _54  and  _56
REMARK   27  A    between atoms: _56  and  _57
REMARK   28  A    between atoms: _56  and  _59
REMARK   29  A    between atoms: _59  and  _60
REMARK   30  A    between atoms: _65  and  _67
REMARK   31  A    between atoms: _67  and  _68
REMARK   32  A    between atoms: _67  and  _70
REMARK   33  A    between atoms: _73  and  _75
REMARK   34  A    between atoms: _75  and  _76
REMARK   35  A    between atoms: _75  and  _78
REMARK   36  A    between atoms: _78  and  _79
REMARK   37  A    between atoms: _82  and  _84
REMARK   38  A    between atoms: _84  and  _85
REMARK   39  A    between atoms: _84  and  _87
REMARK   40  A    between atoms: _87  and  _88
REMARK   41  A    between atoms: _94  and  _96
REMARK   42  A    between atoms: _96  and  _97
REMARK   43  A    between atoms: _100  and  _102
REMARK   44  A    between atoms: _102  and  _103
REMARK   45  A    between atoms: _102  and  _105
REMARK   46  A    between atoms: _105  and  _106
REMARK   47  A    between atoms: _111  and  _113
REMARK   48  A    between atoms: _113  and  _114
REMARK   49  A    between atoms: _113  and  _116
REMARK   50  A    between atoms: _116  and  _117
REMARK   51  A    between atoms: _117  and  _118
REMARK   52  A    between atoms: _118  and  _119
REMARK   53  A    between atoms: _128  and  _130
REMARK   54  A    between atoms: _130  and  _131
REMARK   55  A    between atoms: _130  and  _133
REMARK   56  A    between atoms: _133  and  _134
REMARK   57  A    between atoms: _140  and  _142
REMARK   58  A    between atoms: _142  and  _143
REMARK   59  A    between atoms: _142  and  _145
REMARK   60  A    between atoms: _148  and  _150
REMARK   61  A    between atoms: _150  and  _151
REMARK   62  A    between atoms: _153  and  _155
REMARK   63  A    between atoms: _155  and  _156
REMARK   64  A    between atoms: _158  and  _160
REMARK   65  A    between atoms: _160  and  _161
REMARK   66  A    between atoms: _163  and  _165
REMARK   67  A    between atoms: _165  and  _166
REMARK   68  A    between atoms: _165  and  _168
REMARK   69  A    between atoms: _171  and  _173
REMARK   70  A    between atoms: _173  and  _174
REMARK   71  A    between atoms: _176  and  _178
REMARK   72  A    between atoms: _178  and  _179
REMARK   73  A    between atoms: _178  and  _181
REMARK   74  A    between atoms: _181  and  _182
REMARK   75  A    between atoms: _185  and  _187
REMARK   76  A    between atoms: _187  and  _188
REMARK   77  A    between atoms: _187  and  _190
REMARK   78  A    between atoms: _193  and  _195
REMARK   79  A    between atoms: _195  and  _196
REMARK   80  A    between atoms: _195  and  _198
REMARK   81  A    between atoms: _198  and  _199
REMARK   82  A    between atoms: _199  and  _200
REMARK   83  A    between atoms: _205  and  _207
REMARK   84  A    between atoms: _207  and  _208
REMARK   85  A    between atoms: _207  and  _210
REMARK   86  A    between atoms: _210  and  _211
REMARK   87  A    between atoms: _211  and  _212
REMARK   88  A    between atoms: _215  and  _217
REMARK   89  A    between atoms: _217  and  _218
REMARK   90  A    between atoms: _217  and  _220
REMARK   91  A    between atoms: _220  and  _221
REMARK   92  A    between atoms: _221  and  _222
REMARK   93  A    between atoms: _225  and  _227
REMARK   94  A    between atoms: _227  and  _228
REMARK   95  A    between atoms: _227  and  _230
REMARK   96  A    between atoms: _230  and  _231
REMARK   97  A    between atoms: _234  and  _236
REMARK   98  A    between atoms: _236  and  _237
REMARK   99  A    between atoms: _236  and  _239
REMARK  100  A    between atoms: _239  and  _240
REMARK  101  A    between atoms: _240  and  _241
REMARK  102  A    between atoms: _241  and  _242
REMARK  103  A    between atoms: _251  and  _253
REMARK  104  A    between atoms: _253  and  _254
REMARK  105  A    between atoms: _253  and  _256
REMARK  106  A    between atoms: _256  and  _257
REMARK  107  A    between atoms: _263  and  _265
REMARK  108  A    between atoms: _265  and  _266
REMARK  109  A    between atoms: _265  and  _268
REMARK  110  A    between atoms: _268  and  _269
REMARK  111  A    between atoms: _272  and  _274
REMARK  112  A    between atoms: _274  and  _275
REMARK  113  A    between atoms: _274  and  _277
REMARK  114  A    between atoms: _277  and  _278
REMARK  115  A    between atoms: _278  and  _279
REMARK  116  A    between atoms: _279  and  _280
REMARK  117  A    between atoms: _289  and  _291
REMARK  118  A    between atoms: _291  and  _292
REMARK  119  A    between atoms: _291  and  _294
REMARK  120  A    between atoms: _294  and  _295
REMARK  121  A    between atoms: _300  and  _301
REMARK  122  A    between atoms: _303  and  _305
REMARK  123  A    between atoms: _305  and  _306
REMARK  124  A    between atoms: _308  and  _310
REMARK  125  A    between atoms: _310  and  _311
REMARK  126  A    between atoms: _310  and  _313
REMARK  127  A    between atoms: _313  and  _314
REMARK  128  A    between atoms: _319  and  _320
REMARK  129  A    between atoms: _322  and  _324
REMARK  130  A    between atoms: _324  and  _325
REMARK  131  A    between atoms: _328  and  _330
REMARK  132  A    between atoms: _330  and  _331
REMARK  133  A    between atoms: _330  and  _333
REMARK  134  A    between atoms: _333  and  _334
REMARK  135  A    between atoms: _337  and  _339
REMARK  136  A    between atoms: _339  and  _340
REMARK  137  A    between atoms: _339  and  _342
REMARK  138  A    between atoms: _342  and  _343
REMARK  139  A    between atoms: _346  and  _348
REMARK  140  A    between atoms: _348  and  _349
REMARK  141  A    between atoms: _352  and  _354
REMARK  142  A    between atoms: _354  and  _355
REMARK  143  A    between atoms: _354  and  _357
REMARK  144  A    between atoms: _357  and  _358
REMARK  145  A    between atoms: _361  and  _363
REMARK  146  A    between atoms: _363  and  _364
REMARK  147  A    between atoms: _363  and  _366
REMARK  148  A    between atoms: _366  and  _367
REMARK  149  A    between atoms: _372  and  _374
REMARK  150  A    between atoms: _374  and  _375
REMARK  151  A    between atoms: _374  and  _377
REMARK  152  A    between atoms: _377  and  _378
REMARK  153  A    between atoms: _384  and  _386
REMARK  154  A    between atoms: _386  and  _387
REMARK  155  A    between atoms: _390  and  _392
REMARK  156  A    between atoms: _392  and  _393
REMARK  157  A    between atoms: _392  and  _395
REMARK  158  A    between atoms: _395  and  _396
REMARK  159  A    between atoms: _399  and  _401
REMARK  160  A    between atoms: _401  and  _402
REMARK  161  A    between atoms: _404  and  _406
REMARK  162  A    between atoms: _406  and  _407
REMARK  163  A    between atoms: _406  and  _409
REMARK  164  A    between atoms: _409  and  _410
REMARK  165  A    between atoms: _415  and  _417
REMARK  166  A    between atoms: _417  and  _418
REMARK  167  A    between atoms: _417  and  _420
REMARK  168  A    between atoms: _420  and  _421
REMARK  169  A    between atoms: _431  and  _433
REMARK  170  A    between atoms: _433  and  _434
REMARK  171  A    between atoms: _436  and  _438
REMARK  172  A    between atoms: _438  and  _439
REMARK  173  A    between atoms: _438  and  _441
REMARK  174  A    between atoms: _443  and  _445
REMARK  175  A    between atoms: _445  and  _446
REMARK  176  A    between atoms: _448  and  _450
REMARK  177  A    between atoms: _450  and  _451
REMARK  178  A    between atoms: _454  and  _456
REMARK  179  A    between atoms: _456  and  _457
REMARK  180  A    between atoms: _456  and  _459
REMARK  181  A    between atoms: _459  and  _460
REMARK  182  A    between atoms: _466  and  _468
REMARK  183  A    between atoms: _468  and  _469
REMARK  184  A    between atoms: _471  and  _473
REMARK  185  A    between atoms: _473  and  _474
REMARK  186  A    between atoms: _476  and  _478
REMARK  187  A    between atoms: _478  and  _479
REMARK  188  A    between atoms: _482  and  _484
REMARK  189  A    between atoms: _484  and  _485
REMARK  190  A    between atoms: _484  and  _487
REMARK  191  A    between atoms: _487  and  _488
REMARK  192  A    between atoms: _488  and  _489
REMARK  193  A    between atoms: _489  and  _490
REMARK  194  A    between atoms: _490  and  _491
REMARK  195  A    between atoms: _495  and  _497
REMARK  196  A    between atoms: _497  and  _498
REMARK  197  A    between atoms: _497  and  _500
REMARK  198  A    between atoms: _500  and  _501
REMARK  199  A    between atoms: _506  and  _507
REMARK  200  A    between atoms: _509  and  _511
REMARK  201  A    between atoms: _511  and  _512
REMARK  202  A    between atoms: _511  and  _514
REMARK  203  A    between atoms: _514  and  _515
REMARK  204  A    between atoms: _521  and  _523
REMARK  205  A    between atoms: _523  and  _524
REMARK  206  A    between atoms: _523  and  _526
REMARK  207  A    between atoms: _526  and  _527
REMARK  208  A    between atoms: _530  and  _532
REMARK  209  A    between atoms: _532  and  _533
REMARK  210  A    between atoms: _532  and  _535
REMARK  211  A    between atoms: _535  and  _536
REMARK  212  A    between atoms: _542  and  _544
REMARK  213  A    between atoms: _544  and  _545
REMARK  214  A    between atoms: _547  and  _549
REMARK  215  A    between atoms: _549  and  _550
REMARK  216  A    between atoms: _549  and  _552
REMARK  217  A    between atoms: _552  and  _553
REMARK  218  A    between atoms: _556  and  _558
REMARK  219  A    between atoms: _558  and  _559
REMARK  220  A    between atoms: _558  and  _561
REMARK  221  A    between atoms: _561  and  _562
REMARK                            x       y       z     vdW  Elec       q    Type
REMARK                         _______ _______ _______ _____ _____    ______ ____
ROOT
ATOM      1  CG  TYR A   1      21.410   4.339  -5.949  0.00  0.00    -0.020 A 
ATOM      2  CD2 TYR A   1      20.395   3.501  -5.499  0.00  0.00    -0.001 A 
ATOM      3  CE2 TYR A   1      20.675   2.307  -4.864  0.00  0.00    +0.036 A 
ATOM      4  CZ  TYR A   1      21.976   1.925  -4.671  0.00  0.00    +0.134 A 
ATOM      5  CE1 TYR A   1      23.008   2.724  -5.091  0.00  0.00    +0.036 A 
ATOM      6  CD1 TYR A   1      22.718   3.935  -5.750  0.00  0.00    -0.001 A 
ENDROOT
BRANCH   4   7
ATOM      7  OH  TYR A   1      22.213   0.728  -4.020  0.00  0.00    -0.506 OA
ATOM      8  HH  TYR A   1      21.349   0.298  -3.798  0.00  0.00    +0.292 HD
ENDBRANCH   4   7
BRANCH   1   9
ATOM      9  CB  TYR A   1      21.085   5.636  -6.643  0.00  0.00    +0.051 C 
BRANCH   9  10
ATOM     10  CA  TYR A   1      20.511   5.515  -8.070  0.00  0.00    +0.137 C 
BRANCH  10  11
ATOM     11  N   TYR A   1      19.146   5.016  -8.038  0.00  0.00    -0.239 NA
ATOM     12  H   TYR A   1      18.983   3.996  -7.919  0.00  0.00    +0.142 HD
ENDBRANCH  10  11
BRANCH  10  13
ATOM     13  C   TYR A   1      21.427   4.638  -8.901  0.00  0.00    +0.224 C 
ATOM     14  O   TYR A   1      21.129   3.473  -9.154  0.00  0.00    -0.287 OA
ENDBRANCH  10  13
ENDBRANCH   9  10
ENDBRANCH   1   9
TORSDOF 5
REMARK  Name = ../refined-set-2016/4b1j/4b1j_pocket.pdb
REMARK  221 active torsions:
REMARK  status: ('A' for Active; 'I' for Inactive)
REMARK    1  A    between atoms: _1  and  _3
REMARK    2  A    between atoms: _3  and  _4
REMARK    3  A    between atoms: _3  and  _6
REMARK    4  A    between atoms: _6  and  _7
REMARK    5  A    between atoms: _7  and  _8
REMARK    6  A    between atoms: _11  and  _13
REMARK    7  A    between atoms: _13  and  _14
REMARK    8  A    between atoms: _16  and  _18
REMARK    9  A    between atoms: _18  and  _19
REMARK   10  A    between atoms: _18  and  _21
REMARK   11  A    between atoms: _21  and  _22
REMARK   12  A    between atoms: _25  and  _27
REMARK   13  A    between atoms: _27  and  _28
REMARK   14  A    between atoms: _27  and  _30
REMARK   15  A    between atoms: _30  and  _31
REMARK   16  A    between atoms: _34  and  _36
REMARK   17  A    between atoms: _36  and  _37
REMARK   18  A    between atoms: _36  and  _39
REMARK   19  A    between atoms: _39  and  _40
REMARK   20  A    between atoms: _40  and  _41
REMARK   21  A    between atoms: _44  and  _46
REMARK   22  A    between atoms: _46  and  _47
REMARK   23  A    between atoms: _46  and  _49
REMARK   24  A    between atoms: _49  and  _50
REMARK   25  A    between atoms: _50  and  _51
REMARK   26  A    between atoms: _54  and  _56
REMARK   27  A    between atoms: _56  and  _57
REMARK   28  A    between atoms: _56  and  _59
REMARK   29  A    between atoms: _59  and  _60
REMARK   30  A    between atoms: _65  and  _67
REMARK   31  A    between atoms: _67  and  _68
REMARK   32  A    between atoms: _67  and  _70
REMARK   33  A    between atoms: _73  and  _75
REMARK   34  A    between atoms: _75  and  _76
REMARK   35  A    between atoms: _75  and  _78
REMARK   36  A    between atoms: _78  and  _79
REMARK   37  A    between atoms: _82  and  _84
REMARK   38  A    between atoms: _84  and  _85
REMARK   39  A    between atoms: _84  and  _87
REMARK   40  A    between atoms: _87  and  _88
REMARK   41  A    between atoms: _94  and  _96
REMARK   42  A    between atoms: _96  and  _97
REMARK   43  A    between atoms: _100  and  _102
REMARK   44  A    between atoms: _102  and  _103
REMARK   45  A    between atoms: _102  and  _105
REMARK   46  A    between atoms: _105  and  _106
REMARK   47  A    between atoms: _111  and  _113
REMARK   48  A    between atoms: _113  and  _114
REMARK   49  A    between atoms: _113  and  _116
REMARK   50  A    between atoms: _116  and  _117
REMARK   51  A    between atoms: _117  and  _118
REMARK   52  A    between atoms: _118  and  _119
REMARK   53  A    between atoms: _128  and  _130
REMARK   54  A    between atoms: _130  and  _131
REMARK   55  A    between atoms: _130  and  _133
REMARK   56  A    between atoms: _133  and  _134
REMARK   57  A    between atoms: _140  and  _142
REMARK   58  A    between atoms: _142  and  _143
REMARK   59  A    between atoms: _142  and  _145
REMARK   60  A    between atoms: _148  and  _150
REMARK   61  A    between atoms: _150  and  _151
REMARK   62  A    between atoms: _153  and  _155
REMARK   63  A    between atoms: _155  and  _156
REMARK   64  A    between atoms: _158  and  _160
REMARK   65  A    between atoms: _160  and  _161
REMARK   66  A    between atoms: _163  and  _165
REMARK   67  A    between atoms: _165  and  _166
REMARK   68  A    between atoms: _165  and  _168
REMARK   69  A    between atoms: _171  and  _173
REMARK   70  A    between atoms: _173  and  _174
REMARK   71  A    between atoms: _176  and  _178
REMARK   72  A    between atoms: _178  and  _179
REMARK   73  A    between atoms: _178  and  _181
REMARK   74  A    between atoms: _181  and  _182
REMARK   75  A    between atoms: _185  and  _187
REMARK   76  A    between atoms: _187  and  _188
REMARK   77  A    between atoms: _187  and  _190
REMARK   78  A    between atoms: _193  and  _195
REMARK   79  A    between atoms: _195  and  _196
REMARK   80  A    between atoms: _195  and  _198
REMARK   81  A    between atoms: _198  and  _199
REMARK   82  A    between atoms: _199  and  _200
REMARK   83  A    between atoms: _205  and  _207
REMARK   84  A    between atoms: _207  and  _208
REMARK   85  A    between atoms: _207  and  _210
REMARK   86  A    between atoms: _210  and  _211
REMARK   87  A    between atoms: _211  and  _212
REMARK   88  A    between atoms: _215  and  _217
REMARK   89  A    between atoms: _217  and  _218
REMARK   90  A    between atoms: _217  and  _220
REMARK   91  A    between atoms: _220  and  _221
REMARK   92  A    between atoms: _221  and  _222
REMARK   93  A    between atoms: _225  and  _227
REMARK   94  A    between atoms: _227  and  _228
REMARK   95  A    between atoms: _227  and  _230
REMARK   96  A    between atoms: _230  and  _231
REMARK   97  A    between atoms: _234  and  _236
REMARK   98  A    between atoms: _236  and  _237
REMARK   99  A    between atoms: _236  and  _239
REMARK  100  A    between atoms: _239  and  _240
REMARK  101  A    between atoms: _240  and  _241
REMARK  102  A    between atoms: _241  and  _242
REMARK  103  A    between atoms: _251  and  _253
REMARK  104  A    between atoms: _253  and  _254
REMARK  105  A    between atoms: _253  and  _256
REMARK  106  A    between atoms: _256  and  _257
REMARK  107  A    between atoms: _263  and  _265
REMARK  108  A    between atoms: _265  and  _266
REMARK  109  A    between atoms: _265  and  _268
REMARK  110  A    between atoms: _268  and  _269
REMARK  111  A    between atoms: _272  and  _274
REMARK  112  A    between atoms: _274  and  _275
REMARK  113  A    between atoms: _274  and  _277
REMARK  114  A    between atoms: _277  and  _278
REMARK  115  A    between atoms: _278  and  _279
REMARK  116  A    between atoms: _279  and  _280
REMARK  117  A    between atoms: _289  and  _291
REMARK  118  A    between atoms: _291  and  _292
REMARK  119  A    between atoms: _291  and  _294
REMARK  120  A    between atoms: _294  and  _295
REMARK  121  A    between atoms: _300  and  _301
REMARK  122  A    between atoms: _303  and  _305
REMARK  123  A    between atoms: _305  and  _306
REMARK  124  A    between atoms: _308  and  _310
REMARK  125  A    between atoms: _310  and  _311
REMARK  126  A    between atoms: _310  and  _313
REMARK  127  A    between atoms: _313  and  _314
REMARK  128  A    between atoms: _319  and  _320
REMARK  129  A    between atoms: _322  and  _324
REMARK  130  A    between atoms: _324  and  _325
REMARK  131  A    between atoms: _328  and  _330
REMARK  132  A    between atoms: _330  and  _331
REMARK  133  A    between atoms: _330  and  _333
REMARK  134  A    between atoms: _333  and  _334
REMARK  135  A    between atoms: _337  and  _339
REMARK  136  A    between atoms: _339  and  _340
REMARK  137  A    between atoms: _339  and  _342
REMARK  138  A    between atoms: _342  and  _343
REMARK  139  A    between atoms: _346  and  _348
REMARK  140  A    between atoms: _348  and  _349
REMARK  141  A    between atoms: _352  and  _354
REMARK  142  A    between atoms: _354  and  _355
REMARK  143  A    between atoms: _354  and  _357
REMARK  144  A    between atoms: _357  and  _358
REMARK  145  A    between atoms: _361  and  _363
REMARK  146  A    between atoms: _363  and  _364
REMARK  147  A    between atoms: _363  and  _366
REMARK  148  A    between atoms: _366  and  _367
REMARK  149  A    between atoms: _372  and  _374
REMARK  150  A    between atoms: _374  and  _375
REMARK  151  A    between atoms: _374  and  _377
REMARK  152  A    between atoms: _377  and  _378
REMARK  153  A    between atoms: _384  and  _386
REMARK  154  A    between atoms: _386  and  _387
REMARK  155  A    between atoms: _390  and  _392
REMARK  156  A    between atoms: _392  and  _393
REMARK  157  A    between atoms: _392  and  _395
REMARK  158  A    between atoms: _395  and  _396
REMARK  159  A    between atoms: _399  and  _401
REMARK  160  A    between atoms: _401  and  _402
REMARK  161  A    between atoms: _404  and  _406
REMARK  162  A    between atoms: _406  and  _407
REMARK  163  A    between atoms: _406  and  _409
REMARK  164  A    between atoms: _409  and  _410
REMARK  165  A    between atoms: _415  and  _417
REMARK  166  A    between atoms: _417  and  _418
REMARK  167  A    between atoms: _417  and  _420
REMARK  168  A    between atoms: _420  and  _421
REMARK  169  A    between atoms: _431  and  _433
REMARK  170  A    between atoms: _433  and  _434
REMARK  171  A    between atoms: _436  and  _438
REMARK  172  A    between atoms: _438  and  _439
REMARK  173  A    between atoms: _438  and  _441
REMARK  174  A    between atoms: _443  and  _445
REMARK  175  A    between atoms: _445  and  _446
REMARK  176  A    between atoms: _448  and  _450
REMARK  177  A    between atoms: _450  and  _451
REMARK  178  A    between atoms: _454  and  _456
REMARK  179  A    between atoms: _456  and  _457
REMARK  180  A    between atoms: _456  and  _459
REMARK  181  A    between atoms: _459  and  _460
REMARK  182  A    between atoms: _466  and  _468
REMARK  183  A    between atoms: _468  and  _469
REMARK  184  A    between atoms: _471  and  _473
REMARK  185  A    between atoms: _473  and  _474
REMARK  186  A    between atoms: _476  and  _478
REMARK  187  A    between atoms: _478  and  _479
REMARK  188  A    between atoms: _482  and  _484
REMARK  189  A    between atoms: _484  and  _485
REMARK  190  A    between atoms: _484  and  _487
REMARK  191  A    between atoms: _487  and  _488
REMARK  192  A    between atoms: _488  and  _489
REMARK  193  A    between atoms: _489  and  _490
REMARK  194  A    between atoms: _490  and  _491
REMARK  195  A    between atoms: _495  and  _497
REMARK  196  A    between atoms: _497  and  _498
REMARK  197  A    between atoms: _497  and  _500
REMARK  198  A    between atoms: _500  and  _501
REMARK  199  A    between atoms: _506  and  _507
REMARK  200  A    between atoms: _509  and  _511
REMARK  201  A    between atoms: _511  and  _512
REMARK  202  A    between atoms: _511  and  _514
REMARK  203  A    between atoms: _514  and  _515
REMARK  204  A    between atoms: _521  and  _523
REMARK  205  A    between atoms: _523  and  _524
REMARK  206  A    between atoms: _523  and  _526
REMARK  207  A    between atoms: _526  and  _527
REMARK  208  A    between atoms: _530  and  _532
REMARK  209  A    between atoms: _532  and  _533
REMARK  210  A    between atoms: _532  and  _535
REMARK  211  A    between atoms: _535  and  _536
REMARK  212  A    between atoms: _542  and  _544
REMARK  213  A    between atoms: _544  and  _545
REMARK  214  A    between atoms: _547  and  _549
REMARK  215  A    between atoms: _549  and  _550
REMARK  216  A    between atoms: _549  and  _552
REMARK  217  A    between atoms: _552  and  _553
REMARK  218  A    between atoms: _556  and  _558
REMARK  219  A    between atoms: _558  and  _559
REMARK  220  A    between atoms: _558  and  _561
REMARK  221  A    between atoms: _561  and  _562
REMARK                            x       y       z     vdW  Elec       q    Type
REMARK                         _______ _______ _______ _____ _____    ______ ____
ROOT
ATOM      1  CA  TYR A   2      28.155   3.984  -4.596  0.00  0.00    +0.153 C 
ENDROOT
BRANCH   1   3
ATOM      2  C   GLY A   1      26.993   3.827  -6.727  0.00  0.00    +0.240 C 
ATOM      3  N   TYR A   2      27.966   4.326  -5.984  0.00  0.00    -0.297 N 
ATOM      4  H   TYR A   2      28.628   4.998  -6.422  0.00  0.00    +0.150 HD
ATOM      5  O   GLY A   1      26.022   3.227  -6.266  0.00  0.00    -0.274 OA
BRANCH   2   6
ATOM      6  CA  GLY A   1      27.136   4.091  -8.221  0.00  0.00    +0.169 C 
BRANCH   6   7
ATOM      7  N   GLY A   1      25.893   3.884  -8.942  0.00  0.00    -0.236 NA
ATOM      8  H   GLY A   1      25.784   3.025  -9.518  0.00  0.00    +0.142 HD
ENDBRANCH   6   7
ENDBRANCH   2   6
ENDBRANCH   1   3
BRANCH   1   9
ATOM      9  C   TYR A   2      29.226   4.922  -4.118  0.00  0.00    +0.241 C 
ATOM     10  N   ALA A   3      29.076   5.434  -2.903  0.00  0.00    -0.298 N 
ATOM     11  H   ALA A   3      28.213   5.225  -2.362  0.00  0.00    +0.150 HD
ATOM     12  O   TYR A   2      30.184   5.202  -4.856  0.00  0.00    -0.273 OA
BRANCH  10  13
ATOM     13  CA  ALA A   3      30.094   6.277  -2.322  0.00  0.00    +0.137 C 
ATOM     14  CB  ALA A   3      31.325   5.434  -1.985  0.00  0.00    +0.030 C 
BRANCH  13  15
ATOM     15  C   ALA A   3      30.408   7.444  -3.292  0.00  0.00    +0.227 C 
ATOM     16  O   ALA A   3      29.487   8.057  -3.823  0.00  0.00    -0.286 OA
ENDBRANCH  13  15
ENDBRANCH  10  13
ENDBRANCH   1   9
BRANCH   1  17
ATOM     17  CB  TYR A   2      28.636   2.517  -4.480  0.00  0.00    +0.055 C 
BRANCH  17  18
ATOM     18  CG  TYR A   2      28.706   1.992  -3.045  0.00  0.00    -0.020 A 
ATOM     19  CD2 TYR A   2      27.550   1.698  -2.348  0.00  0.00    -0.001 A 
ATOM     20  CE2 TYR A   2      27.587   1.259  -1.055  0.00  0.00    +0.036 A 
ATOM     21  CZ  TYR A   2      28.783   1.049  -0.431  0.00  0.00    +0.134 A 
ATOM     22  CE1 TYR A   2      29.964   1.315  -1.080  0.00  0.00    +0.036 A 
ATOM     23  CD1 TYR A   2      29.923   1.794  -2.396  0.00  0.00    -0.001 A 
BRANCH  21  24
ATOM     24  OH  TYR A   2      28.786   0.572   0.882  0.00  0.00    -0.506 OA
ATOM     25  HH  TYR A   2      29.234   1.230   1.470  0.00  0.00    +0.292 HD
ENDBRANCH  21  24
ENDBRANCH  17  18
ENDBRANCH   1  17
TORSDOF 9
REMARK  Name = ../refined-set-2016/4b1j/4b1j_pocket.pdb
REMARK  221 active torsions:
REMARK  status: ('A' for Active; 'I' for Inactive)
REMARK    1  A    between atoms: _1  and  _3
REMARK    2  A    between atoms: _3  and  _4
REMARK    3  A    between atoms: _3  and  _6
REMARK    4  A    between atoms: _6  and  _7
REMARK    5  A    between atoms: _7  and  _8
REMARK    6  A    between atoms: _11  and  _13
REMARK    7  A    between atoms: _13  and  _14
REMARK    8  A    between atoms: _16  and  _18
REMARK    9  A    between atoms: _18  and  _19
REMARK   10  A    between atoms: _18  and  _21
REMARK   11  A    between atoms: _21  and  _22
REMARK   12  A    between atoms: _25  and  _27
REMARK   13  A    between atoms: _27  and  _28
REMARK   14  A    between atoms: _27  and  _30
REMARK   15  A    between atoms: _30  and  _31
REMARK   16  A    between atoms: _34  and  _36
REMARK   17  A    between atoms: _36  and  _37
REMARK   18  A    between atoms: _36  and  _39
REMARK   19  A    between atoms: _39  and  _40
REMARK   20  A    between atoms: _40  and  _41
REMARK   21  A    between atoms: _44  and  _46
REMARK   22  A    between atoms: _46  and  _47
REMARK   23  A    between atoms: _46  and  _49
REMARK   24  A    between atoms: _49  and  _50
REMARK   25  A    between atoms: _50  and  _51
REMARK   26  A    between atoms: _54  and  _56
REMARK   27  A    between atoms: _56  and  _57
REMARK   28  A    between atoms: _56  and  _59
REMARK   29  A    between atoms: _59  and  _60
REMARK   30  A    between atoms: _65  and  _67
REMARK   31  A    between atoms: _67  and  _68
REMARK   32  A    between atoms: _67  and  _70
REMARK   33  A    between atoms: _73  and  _75
REMARK   34  A    between atoms: _75  and  _76
REMARK   35  A    between atoms: _75  and  _78
REMARK   36  A    between atoms: _78  and  _79
REMARK   37  A    between atoms: _82  and  _84
REMARK   38  A    between atoms: _84  and  _85
REMARK   39  A    between atoms: _84  and  _87
REMARK   40  A    between atoms: _87  and  _88
REMARK   41  A    between atoms: _94  and  _96
REMARK   42  A    between atoms: _96  and  _97
REMARK   43  A    between atoms: _100  and  _102
REMARK   44  A    between atoms: _102  and  _103
REMARK   45  A    between atoms: _102  and  _105
REMARK   46  A    between atoms: _105  and  _106
REMARK   47  A    between atoms: _111  and  _113
REMARK   48  A    between atoms: _113  and  _114
REMARK   49  A    between atoms: _113  and  _116
REMARK   50  A    between atoms: _116  and  _117
REMARK   51  A    between atoms: _117  and  _118
REMARK   52  A    between atoms: _118  and  _119
REMARK   53  A    between atoms: _128  and  _130
REMARK   54  A    between atoms: _130  and  _131
REMARK   55  A    between atoms: _130  and  _133
REMARK   56  A    between atoms: _133  and  _134
REMARK   57  A    between atoms: _140  and  _142
REMARK   58  A    between atoms: _142  and  _143
REMARK   59  A    between atoms: _142  and  _145
REMARK   60  A    between atoms: _148  and  _150
REMARK   61  A    between atoms: _150  and  _151
REMARK   62  A    between atoms: _153  and  _155
REMARK   63  A    between atoms: _155  and  _156
REMARK   64  A    between atoms: _158  and  _160
REMARK   65  A    between atoms: _160  and  _161
REMARK   66  A    between atoms: _163  and  _165
REMARK   67  A    between atoms: _165  and  _166
REMARK   68  A    between atoms: _165  and  _168
REMARK   69  A    between atoms: _171  and  _173
REMARK   70  A    between atoms: _173  and  _174
REMARK   71  A    between atoms: _176  and  _178
REMARK   72  A    between atoms: _178  and  _179
REMARK   73  A    between atoms: _178  and  _181
REMARK   74  A    between atoms: _181  and  _182
REMARK   75  A    between atoms: _185  and  _187
REMARK   76  A    between atoms: _187  and  _188
REMARK   77  A    between atoms: _187  and  _190
REMARK   78  A    between atoms: _193  and  _195
REMARK   79  A    between atoms: _195  and  _196
REMARK   80  A    between atoms: _195  and  _198
REMARK   81  A    between atoms: _198  and  _199
REMARK   82  A    between atoms: _199  and  _200
REMARK   83  A    between atoms: _205  and  _207
REMARK   84  A    between atoms: _207  and  _208
REMARK   85  A    between atoms: _207  and  _210
REMARK   86  A    between atoms: _210  and  _211
REMARK   87  A    between atoms: _211  and  _212
REMARK   88  A    between atoms: _215  and  _217
REMARK   89  A    between atoms: _217  and  _218
REMARK   90  A    between atoms: _217  and  _220
REMARK   91  A    between atoms: _220  and  _221
REMARK   92  A    between atoms: _221  and  _222
REMARK   93  A    between atoms: _225  and  _227
REMARK   94  A    between atoms: _227  and  _228
REMARK   95  A    between atoms: _227  and  _230
REMARK   96  A    between atoms: _230  and  _231
REMARK   97  A    between atoms: _234  and  _236
REMARK   98  A    between atoms: _236  and  _237
REMARK   99  A    between atoms: _236  and  _239
REMARK  100  A    between atoms: _239  and  _240
REMARK  101  A    between atoms: _240  and  _241
REMARK  102  A    between atoms: _241  and  _242
REMARK  103  A    between atoms: _251  and  _253
REMARK  104  A    between atoms: _253  and  _254
REMARK  105  A    between atoms: _253  and  _256
REMARK  106  A    between atoms: _256  and  _257
REMARK  107  A    between atoms: _263  and  _265
REMARK  108  A    between atoms: _265  and  _266
REMARK  109  A    between atoms: _265  and  _268
REMARK  110  A    between atoms: _268  and  _269
REMARK  111  A    between atoms: _272  and  _274
REMARK  112  A    between atoms: _274  and  _275
REMARK  113  A    between atoms: _274  and  _277
REMARK  114  A    between atoms: _277  and  _278
REMARK  115  A    between atoms: _278  and  _279
REMARK  116  A    between atoms: _279  and  _280
REMARK  117  A    between atoms: _289  and  _291
REMARK  118  A    between atoms: _291  and  _292
REMARK  119  A    between atoms: _291  and  _294
REMARK  120  A    between atoms: _294  and  _295
REMARK  121  A    between atoms: _300  and  _301
REMARK  122  A    between atoms: _303  and  _305
REMARK  123  A    between atoms: _305  and  _306
REMARK  124  A    between atoms: _308  and  _310
REMARK  125  A    between atoms: _310  and  _311
REMARK  126  A    between atoms: _310  and  _313
REMARK  127  A    between atoms: _313  and  _314
REMARK  128  A    between atoms: _319  and  _320
REMARK  129  A    between atoms: _322  and  _324
REMARK  130  A    between atoms: _324  and  _325
REMARK  131  A    between atoms: _328  and  _330
REMARK  132  A    between atoms: _330  and  _331
REMARK  133  A    between atoms: _330  and  _333
REMARK  134  A    between atoms: _333  and  _334
REMARK  135  A    between atoms: _337  and  _339
REMARK  136  A    between atoms: _339  and  _340
REMARK  137  A    between atoms: _339  and  _342
REMARK  138  A    between atoms: _342  and  _343
REMARK  139  A    between atoms: _346  and  _348
REMARK  140  A    between atoms: _348  and  _349
REMARK  141  A    between atoms: _352  and  _354
REMARK  142  A    between atoms: _354  and  _355
REMARK  143  A    between atoms: _354  and  _357
REMARK  144  A    between atoms: _357  and  _358
REMARK  145  A    between atoms: _361  and  _363
REMARK  146  A    between atoms: _363  and  _364
REMARK  147  A    between atoms: _363  and  _366
REMARK  148  A    between atoms: _366  and  _367
REMARK  149  A    between atoms: _372  and  _374
REMARK  150  A    between atoms: _374  and  _375
REMARK  151  A    between atoms: _374  and  _377
REMARK  152  A    between atoms: _377  and  _378
REMARK  153  A    between atoms: _384  and  _386
REMARK  154  A    between atoms: _386  and  _387
REMARK  155  A    between atoms: _390  and  _392
REMARK  156  A    between atoms: _392  and  _393
REMARK  157  A    between atoms: _392  and  _395
REMARK  158  A    between atoms: _395  and  _396
REMARK  159  A    between atoms: _399  and  _401
REMARK  160  A    between atoms: _401  and  _402
REMARK  161  A    between atoms: _404  and  _406
REMARK  162  A    between atoms: _406  and  _407
REMARK  163  A    between atoms: _406  and  _409
REMARK  164  A    between atoms: _409  and  _410
REMARK  165  A    between atoms: _415  and  _417
REMARK  166  A    between atoms: _417  and  _418
REMARK  167  A    between atoms: _417  and  _420
REMARK  168  A    between atoms: _420  and  _421
REMARK  169  A    between atoms: _431  and  _433
REMARK  170  A    between atoms: _433  and  _434
REMARK  171  A    between atoms: _436  and  _438
REMARK  172  A    between atoms: _438  and  _439
REMARK  173  A    between atoms: _438  and  _441
REMARK  174  A    between atoms: _443  and  _445
REMARK  175  A    between atoms: _445  and  _446
REMARK  176  A    between atoms: _448  and  _450
REMARK  177  A    between atoms: _450  and  _451
REMARK  178  A    between atoms: _454  and  _456
REMARK  179  A    between atoms: _456  and  _457
REMARK  180  A    between atoms: _456  and  _459
REMARK  181  A    between atoms: _459  and  _460
REMARK  182  A    between atoms: _466  and  _468
REMARK  183  A    between atoms: _468  and  _469
REMARK  184  A    between atoms: _471  and  _473
REMARK  185  A    between atoms: _473  and  _474
REMARK  186  A    between atoms: _476  and  _478
REMARK  187  A    between atoms: _478  and  _479
REMARK  188  A    between atoms: _482  and  _484
REMARK  189  A    between atoms: _484  and  _485
REMARK  190  A    between atoms: _484  and  _487
REMARK  191  A    between atoms: _487  and  _488
REMARK  192  A    between atoms: _488  and  _489
REMARK  193  A    between atoms: _489  and  _490
REMARK  194  A    between atoms: _490  and  _491
REMARK  195  A    between atoms: _495  and  _497
REMARK  196  A    between atoms: _497  and  _498
REMARK  197  A    between atoms: _497  and  _500
REMARK  198  A    between atoms: _500  and  _501
REMARK  199  A    between atoms: _506  and  _507
REMARK  200  A    between atoms: _509  and  _511
REMARK  201  A    between atoms: _511  and  _512
REMARK  202  A    between atoms: _511  and  _514
REMARK  203  A    between atoms: _514  and  _515
REMARK  204  A    between atoms: _521  and  _523
REMARK  205  A    between atoms: _523  and  _524
REMARK  206  A    between atoms: _523  and  _526
REMARK  207  A    between atoms: _526  and  _527
REMARK  208  A    between atoms: _530  and  _532
REMARK  209  A    between atoms: _532  and  _533
REMARK  210  A    between atoms: _532  and  _535
REMARK  211  A    between atoms: _535  and  _536
REMARK  212  A    between atoms: _542  and  _544
REMARK  213  A    between atoms: _544  and  _545
REMARK  214  A    between atoms: _547  and  _549
REMARK  215  A    between atoms: _549  and  _550
REMARK  216  A    between atoms: _549  and  _552
REMARK  217  A    between atoms: _552  and  _553
REMARK  218  A    between atoms: _556  and  _558
REMARK  219  A    between atoms: _558  and  _559
REMARK  220  A    between atoms: _558  and  _561
REMARK  221  A    between atoms: _561  and  _562
REMARK                            x       y       z     vdW  Elec       q    Type
REMARK                         _______ _______ _______ _____ _____    ______ ____
ROOT
ATOM      1  CA  LEU A   4      31.176  -3.217  15.417  0.00  0.00    +0.149 C 
ENDROOT
BRANCH   1   2
ATOM      2  C   LEU A   4      32.133  -2.734  14.330  0.00  0.00    +0.241 C 
ATOM      3  N   HIS A   5      32.821  -1.646  14.641  0.00  0.00    -0.297 N 
ATOM      4  H   HIS A   5      32.642  -1.204  15.565  0.00  0.00    +0.150 HD
ATOM      5  O   LEU A   4      32.238  -3.317  13.253  0.00  0.00    -0.273 OA
BRANCH   3   6
ATOM      6  CA  HIS A   5      33.810  -1.032  13.773  0.00  0.00    +0.155 C 
BRANCH   6   7
ATOM      7  C   HIS A   5      35.160  -1.500  14.264  0.00  0.00    +0.241 C 
ATOM      8  O   HIS A   5      35.652  -1.039  15.295  0.00  0.00    -0.273 OA
ATOM      9  N   PHE A   6      35.753  -2.429  13.533  0.00  0.00    -0.298 N 
ATOM     10  H   PHE A   6      35.295  -2.751  12.657  0.00  0.00    +0.150 HD
BRANCH   9  11
ATOM     11  CA  PHE A   6      37.035  -3.017  13.922  0.00  0.00    +0.141 C 
BRANCH  11  12
ATOM     12  C   PHE A   6      38.199  -2.239  13.316  0.00  0.00    +0.227 C 
ATOM     13  O   PHE A   6      38.283  -2.051  12.082  0.00  0.00    -0.286 OA
ENDBRANCH  11  12
BRANCH  11  14
ATOM     14  CB  PHE A   6      37.081  -4.484  13.491  0.00  0.00    +0.054 C 
BRANCH  14  15
ATOM     15  CG  PHE A   6      36.080  -5.334  14.197  0.00  0.00    -0.020 A 
ATOM     16  CD2 PHE A   6      36.173  -5.534  15.567  0.00  0.00    -0.004 A 
ATOM     17  CE2 PHE A   6      35.240  -6.302  16.243  0.00  0.00    -0.000 A 
ATOM     18  CZ  PHE A   6      34.183  -6.861  15.545  0.00  0.00    -0.000 A 
ATOM     19  CE1 PHE A   6      34.078  -6.667  14.172  0.00  0.00    -0.000 A 
ATOM     20  CD1 PHE A   6      35.017  -5.898  13.516  0.00  0.00    -0.004 A 
ENDBRANCH  14  15
ENDBRANCH  11  14
ENDBRANCH   9  11
ENDBRANCH   6   7
BRANCH   6  21
ATOM     21  CB  HIS A   5      33.689   0.485  13.920  0.00  0.00    +0.076 C 
BRANCH  21  22
ATOM     22  CG  HIS A   5      34.496   1.279  12.948  0.00  0.00    +0.082 A 
ATOM     23  CD2 HIS A   5      34.349   2.557  12.514  0.00  0.00    +0.115 A 
ATOM     24  NE2 HIS A   5      35.379   2.806  11.636  0.00  0.00    -0.221 NA
ATOM     25  CE1 HIS A   5      36.137   1.723  11.539  0.00  0.00    +0.199 A 
ATOM     26  ND1 HIS A   5      35.628   0.786  12.326  0.00  0.00    -0.227 NA
ENDBRANCH  21  22
ENDBRANCH   6  21
ENDBRANCH   3   6
ENDBRANCH   1   2
BRANCH   1  28
ATOM     27  C   ALA A   3      29.060  -3.242  14.234  0.00  0.00    +0.241 C 
ATOM     28  N   LEU A   4      30.061  -3.911  14.797  0.00  0.00    -0.297 N 
ATOM     29  H   LEU A   4      30.046  -4.951  14.793  0.00  0.00    +0.150 HD
ATOM     30  O   ALA A   3      28.952  -1.987  14.287  0.00  0.00    -0.273 OA
BRANCH  27  31
ATOM     31  CA  ALA A   3      28.076  -4.074  13.431  0.00  0.00    +0.149 C 
ATOM     32  CB  ALA A   3      28.750  -4.487  12.103  0.00  0.00    +0.031 C 
BRANCH  31  35
ATOM     33  C   ASP A   2      26.029  -2.898  14.080  0.00  0.00    +0.241 C 
ATOM     34  O   ASP A   2      26.040  -3.399  15.212  0.00  0.00    -0.273 OA
ATOM     35  N   ALA A   3      26.896  -3.238  13.140  0.00  0.00    -0.297 N 
ATOM     36  H   ALA A   3      26.741  -2.906  12.167  0.00  0.00    +0.150 HD
BRANCH  33  37
ATOM     37  CA  ASP A   2      24.986  -1.832  13.693  0.00  0.00    +0.160 C 
BRANCH  37  39
ATOM     38  C   ILE A   1      23.036  -2.919  12.796  0.00  0.00    +0.238 C 
ATOM     39  N   ASP A   2      23.662  -2.375  13.826  0.00  0.00    -0.297 N 
ATOM     40  H   ASP A   2      23.187  -2.339  14.750  0.00  0.00    +0.150 HD
ATOM     41  O   ILE A   1      23.528  -2.991  11.651  0.00  0.00    -0.274 OA
BRANCH  38  42
ATOM     42  CA  ILE A   1      21.638  -3.408  13.102  0.00  0.00    +0.145 C 
BRANCH  42  43
ATOM     43  N   ILE A   1      20.756  -2.759  12.157  0.00  0.00    -0.238 NA
ATOM     44  H   ILE A   1      21.006  -2.813  11.149  0.00  0.00    +0.142 HD
ENDBRANCH  42  43
BRANCH  42  45
ATOM     45  CB  ILE A   1      21.577  -4.973  13.065  0.00  0.00    +0.025 C 
ATOM     46  CG2 ILE A   1      20.378  -5.461  13.865  0.00  0.00    +0.002 C 
BRANCH  45  47
ATOM     47  CG1 ILE A   1      21.523  -5.514  11.615  0.00  0.00    +0.002 C 
ATOM     48  CD1 ILE A   1      21.803  -7.024  11.453  0.00  0.00    +0.000 C 
ENDBRANCH  45  47
ENDBRANCH  42  45
ENDBRANCH  38  42
ENDBRANCH  37  39
BRANCH  37  49
ATOM     49  CB  ASP A   2      25.132  -0.616  14.598  0.00  0.00    +0.143 C 
BRANCH  49  50
ATOM     50  CG  ASP A   2      24.822  -0.944  16.065  0.00  0.00    +0.367 C 
ATOM     51  OD2 ASP A   2      25.708  -0.727  16.904  0.00  0.00    -0.246 OA
ATOM     52  OD1 ASP A   2      23.693  -1.421  16.377  0.00  0.00    -0.246 OA
ENDBRANCH  49  50
ENDBRANCH  37  49
ENDBRANCH  33  37
ENDBRANCH  31  35
ENDBRANCH  27  31
ENDBRANCH   1  28
BRANCH   1  53
ATOM     53  CB  LEU A   4      31.912  -4.110  16.407  0.00  0.00    +0.029 C 
BRANCH  53  54
ATOM     54  CG  LEU A   4      31.209  -4.439  17.736  0.00  0.00    +0.002 C 
ATOM     55  CD2 LEU A   4      31.059  -3.197  18.620  0.00  0.00    +0.000 C 
ATOM     56  CD1 LEU A   4      31.984  -5.538  18.465  0.00  0.00    +0.000 C 
ENDBRANCH  53  54
ENDBRANCH   1  53
TORSDOF 22
REMARK  Name = ../refined-set-2016/4b1j/4b1j_pocket.pdb
REMARK  221 active torsions:
REMARK  status: ('A' for Active; 'I' for Inactive)
REMARK    1  A    between atoms: _1  and  _3
REMARK    2  A    between atoms: _3  and  _4
REMARK    3  A    between atoms: _3  and  _6
REMARK    4  A    between atoms: _6  and  _7
REMARK    5  A    between atoms: _7  and  _8
REMARK    6  A    between atoms: _11  and  _13
REMARK    7  A    between atoms: _13  and  _14
REMARK    8  A    between atoms: _16  and  _18
REMARK    9  A    between atoms: _18  and  _19
REMARK   10  A    between atoms: _18  and  _21
REMARK   11  A    between atoms: _21  and  _22
REMARK   12  A    between atoms: _25  and  _27
REMARK   13  A    between atoms: _27  and  _28
REMARK   14  A    between atoms: _27  and  _30
REMARK   15  A    between atoms: _30  and  _31
REMARK   16  A    between atoms: _34  and  _36
REMARK   17  A    between atoms: _36  and  _37
REMARK   18  A    between atoms: _36  and  _39
REMARK   19  A    between atoms: _39  and  _40
REMARK   20  A    between atoms: _40  and  _41
REMARK   21  A    between atoms: _44  and  _46
REMARK   22  A    between atoms: _46  and  _47
REMARK   23  A    between atoms: _46  and  _49
REMARK   24  A    between atoms: _49  and  _50
REMARK   25  A    between atoms: _50  and  _51
REMARK   26  A    between atoms: _54  and  _56
REMARK   27  A    between atoms: _56  and  _57
REMARK   28  A    between atoms: _56  and  _59
REMARK   29  A    between atoms: _59  and  _60
REMARK   30  A    between atoms: _65  and  _67
REMARK   31  A    between atoms: _67  and  _68
REMARK   32  A    between atoms: _67  and  _70
REMARK   33  A    between atoms: _73  and  _75
REMARK   34  A    between atoms: _75  and  _76
REMARK   35  A    between atoms: _75  and  _78
REMARK   36  A    between atoms: _78  and  _79
REMARK   37  A    between atoms: _82  and  _84
REMARK   38  A    between atoms: _84  and  _85
REMARK   39  A    between atoms: _84  and  _87
REMARK   40  A    between atoms: _87  and  _88
REMARK   41  A    between atoms: _94  and  _96
REMARK   42  A    between atoms: _96  and  _97
REMARK   43  A    between atoms: _100  and  _102
REMARK   44  A    between atoms: _102  and  _103
REMARK   45  A    between atoms: _102  and  _105
REMARK   46  A    between atoms: _105  and  _106
REMARK   47  A    between atoms: _111  and  _113
REMARK   48  A    between atoms: _113  and  _114
REMARK   49  A    between atoms: _113  and  _116
REMARK   50  A    between atoms: _116  and  _117
REMARK   51  A    between atoms: _117  and  _118
REMARK   52  A    between atoms: _118  and  _119
REMARK   53  A    between atoms: _128  and  _130
REMARK   54  A    between atoms: _130  and  _131
REMARK   55  A    between atoms: _130  and  _133
REMARK   56  A    between atoms: _133  and  _134
REMARK   57  A    between atoms: _140  and  _142
REMARK   58  A    between atoms: _142  and  _143
REMARK   59  A    between atoms: _142  and  _145
REMARK   60  A    between atoms: _148  and  _150
REMARK   61  A    between atoms: _150  and  _151
REMARK   62  A    between atoms: _153  and  _155
REMARK   63  A    between atoms: _155  and  _156
REMARK   64  A    between atoms: _158  and  _160
REMARK   65  A    between atoms: _160  and  _161
REMARK   66  A    between atoms: _163  and  _165
REMARK   67  A    between atoms: _165  and  _166
REMARK   68  A    between atoms: _165  and  _168
REMARK   69  A    between atoms: _171  and  _173
REMARK   70  A    between atoms: _173  and  _174
REMARK   71  A    between atoms: _176  and  _178
REMARK   72  A    between atoms: _178  and  _179
REMARK   73  A    between atoms: _178  and  _181
REMARK   74  A    between atoms: _181  and  _182
REMARK   75  A    between atoms: _185  and  _187
REMARK   76  A    between atoms: _187  and  _188
REMARK   77  A    between atoms: _187  and  _190
REMARK   78  A    between atoms: _193  and  _195
REMARK   79  A    between atoms: _195  and  _196
REMARK   80  A    between atoms: _195  and  _198
REMARK   81  A    between atoms: _198  and  _199
REMARK   82  A    between atoms: _199  and  _200
REMARK   83  A    between atoms: _205  and  _207
REMARK   84  A    between atoms: _207  and  _208
REMARK   85  A    between atoms: _207  and  _210
REMARK   86  A    between atoms: _210  and  _211
REMARK   87  A    between atoms: _211  and  _212
REMARK   88  A    between atoms: _215  and  _217
REMARK   89  A    between atoms: _217  and  _218
REMARK   90  A    between atoms: _217  and  _220
REMARK   91  A    between atoms: _220  and  _221
REMARK   92  A    between atoms: _221  and  _222
REMARK   93  A    between atoms: _225  and  _227
REMARK   94  A    between atoms: _227  and  _228
REMARK   95  A    between atoms: _227  and  _230
REMARK   96  A    between atoms: _230  and  _231
REMARK   97  A    between atoms: _234  and  _236
REMARK   98  A    between atoms: _236  and  _237
REMARK   99  A    between atoms: _236  and  _239
REMARK  100  A    between atoms: _239  and  _240
REMARK  101  A    between atoms: _240  and  _241
REMARK  102  A    between atoms: _241  and  _242
REMARK  103  A    between atoms: _251  and  _253
REMARK  104  A    between atoms: _253  and  _254
REMARK  105  A    between atoms: _253  and  _256
REMARK  106  A    between atoms: _256  and  _257
REMARK  107  A    between atoms: _263  and  _265
REMARK  108  A    between atoms: _265  and  _266
REMARK  109  A    between atoms: _265  and  _268
REMARK  110  A    between atoms: _268  and  _269
REMARK  111  A    between atoms: _272  and  _274
REMARK  112  A    between atoms: _274  and  _275
REMARK  113  A    between atoms: _274  and  _277
REMARK  114  A    between atoms: _277  and  _278
REMARK  115  A    between atoms: _278  and  _279
REMARK  116  A    between atoms: _279  and  _280
REMARK  117  A    between atoms: _289  and  _291
REMARK  118  A    between atoms: _291  and  _292
REMARK  119  A    between atoms: _291  and  _294
REMARK  120  A    between atoms: _294  and  _295
REMARK  121  A    between atoms: _300  and  _301
REMARK  122  A    between atoms: _303  and  _305
REMARK  123  A    between atoms: _305  and  _306
REMARK  124  A    between atoms: _308  and  _310
REMARK  125  A    between atoms: _310  and  _311
REMARK  126  A    between atoms: _310  and  _313
REMARK  127  A    between atoms: _313  and  _314
REMARK  128  A    between atoms: _319  and  _320
REMARK  129  A    between atoms: _322  and  _324
REMARK  130  A    between atoms: _324  and  _325
REMARK  131  A    between atoms: _328  and  _330
REMARK  132  A    between atoms: _330  and  _331
REMARK  133  A    between atoms: _330  and  _333
REMARK  134  A    between atoms: _333  and  _334
REMARK  135  A    between atoms: _337  and  _339
REMARK  136  A    between atoms: _339  and  _340
REMARK  137  A    between atoms: _339  and  _342
REMARK  138  A    between atoms: _342  and  _343
REMARK  139  A    between atoms: _346  and  _348
REMARK  140  A    between atoms: _348  and  _349
REMARK  141  A    between atoms: _352  and  _354
REMARK  142  A    between atoms: _354  and  _355
REMARK  143  A    between atoms: _354  and  _357
REMARK  144  A    between atoms: _357  and  _358
REMARK  145  A    between atoms: _361  and  _363
REMARK  146  A    between atoms: _363  and  _364
REMARK  147  A    between atoms: _363  and  _366
REMARK  148  A    between atoms: _366  and  _367
REMARK  149  A    between atoms: _372  and  _374
REMARK  150  A    between atoms: _374  and  _375
REMARK  151  A    between atoms: _374  and  _377
REMARK  152  A    between atoms: _377  and  _378
REMARK  153  A    between atoms: _384  and  _386
REMARK  154  A    between atoms: _386  and  _387
REMARK  155  A    between atoms: _390  and  _392
REMARK  156  A    between atoms: _392  and  _393
REMARK  157  A    between atoms: _392  and  _395
REMARK  158  A    between atoms: _395  and  _396
REMARK  159  A    between atoms: _399  and  _401
REMARK  160  A    between atoms: _401  and  _402
REMARK  161  A    between atoms: _404  and  _406
REMARK  162  A    between atoms: _406  and  _407
REMARK  163  A    between atoms: _406  and  _409
REMARK  164  A    between atoms: _409  and  _410
REMARK  165  A    between atoms: _415  and  _417
REMARK  166  A    between atoms: _417  and  _418
REMARK  167  A    between atoms: _417  and  _420
REMARK  168  A    between atoms: _420  and  _421
REMARK  169  A    between atoms: _431  and  _433
REMARK  170  A    between atoms: _433  and  _434
REMARK  171  A    between atoms: _436  and  _438
REMARK  172  A    between atoms: _438  and  _439
REMARK  173  A    between atoms: _438  and  _441
REMARK  174  A    between atoms: _443  and  _445
REMARK  175  A    between atoms: _445  and  _446
REMARK  176  A    between atoms: _448  and  _450
REMARK  177  A    between atoms: _450  and  _451
REMARK  178  A    between atoms: _454  and  _456
REMARK  179  A    between atoms: _456  and  _457
REMARK  180  A    between atoms: _456  and  _459
REMARK  181  A    between atoms: _459  and  _460
REMARK  182  A    between atoms: _466  and  _468
REMARK  183  A    between atoms: _468  and  _469
REMARK  184  A    between atoms: _471  and  _473
REMARK  185  A    between atoms: _473  and  _474
REMARK  186  A    between atoms: _476  and  _478
REMARK  187  A    between atoms: _478  and  _479
REMARK  188  A    between atoms: _482  and  _484
REMARK  189  A    between atoms: _484  and  _485
REMARK  190  A    between atoms: _484  and  _487
REMARK  191  A    between atoms: _487  and  _488
REMARK  192  A    between atoms: _488  and  _489
REMARK  193  A    between atoms: _489  and  _490
REMARK  194  A    between atoms: _490  and  _491
REMARK  195  A    between atoms: _495  and  _497
REMARK  196  A    between atoms: _497  and  _498
REMARK  197  A    between atoms: _497  and  _500
REMARK  198  A    between atoms: _500  and  _501
REMARK  199  A    between atoms: _506  and  _507
REMARK  200  A    between atoms: _509  and  _511
REMARK  201  A    between atoms: _511  and  _512
REMARK  202  A    between atoms: _511  and  _514
REMARK  203  A    between atoms: _514  and  _515
REMARK  204  A    between atoms: _521  and  _523
REMARK  205  A    between atoms: _523  and  _524
REMARK  206  A    between atoms: _523  and  _526
REMARK  207  A    between atoms: _526  and  _527
REMARK  208  A    between atoms: _530  and  _532
REMARK  209  A    between atoms: _532  and  _533
REMARK  210  A    between atoms: _532  and  _535
REMARK  211  A    between atoms: _535  and  _536
REMARK  212  A    between atoms: _542  and  _544
REMARK  213  A    between atoms: _544  and  _545
REMARK  214  A    between atoms: _547  and  _549
REMARK  215  A    between atoms: _549  and  _550
REMARK  216  A    between atoms: _549  and  _552
REMARK  217  A    between atoms: _552  and  _553
REMARK  218  A    between atoms: _556  and  _558
REMARK  219  A    between atoms: _558  and  _559
REMARK  220  A    between atoms: _558  and  _561
REMARK  221  A    between atoms: _561  and  _562
REMARK                            x       y       z     vdW  Elec       q    Type
REMARK                         _______ _______ _______ _____ _____    ______ ____
ROOT
ATOM      1  C   TRP A   5      28.602  -6.207   7.849  0.00  0.00    +0.241 C 
ATOM      2  O   TRP A   5      29.306  -7.126   8.217  0.00  0.00    -0.273 OA
ATOM      3  N   GLY A   6      28.887  -4.935   8.090  0.00  0.00    -0.295 N 
ATOM      4  H   GLY A   6      28.252  -4.196   7.727  0.00  0.00    +0.150 HD
ENDROOT
BRANCH   3   5
ATOM      5  CA  GLY A   6      30.069  -4.545   8.852  0.00  0.00    +0.176 C 
BRANCH   5   6
ATOM      6  C   GLY A   6      31.383  -4.750   8.155  0.00  0.00    +0.243 C 
ATOM      7  O   GLY A   6      32.432  -4.642   8.789  0.00  0.00    -0.273 OA
ATOM      8  N   CYS A   7      31.358  -5.023   6.844  0.00  0.00    -0.296 N 
ATOM      9  H   CYS A   7      30.467  -4.938   6.315  0.00  0.00    +0.150 HD
BRANCH   8  10
ATOM     10  CA  CYS A   7      32.574  -5.439   6.154  0.00  0.00    +0.160 C 
BRANCH  10  11
ATOM     11  C   CYS A   7      33.091  -4.445   5.125  0.00  0.00    +0.242 C 
ATOM     12  N   GLY A   8      32.553  -3.231   5.103  0.00  0.00    -0.295 N 
ATOM     13  H   GLY A   8      31.724  -3.027   5.697  0.00  0.00    +0.150 HD
ATOM     14  O   CYS A   7      33.993  -4.758   4.388  0.00  0.00    -0.273 OA
BRANCH  12  15
ATOM     15  CA  GLY A   8      33.103  -2.191   4.266  0.00  0.00    +0.176 C 
BRANCH  15  16
ATOM     16  C   GLY A   8      33.785  -1.196   5.176  0.00  0.00    +0.243 C 
ATOM     17  O   GLY A   8      34.869  -1.459   5.680  0.00  0.00    -0.273 OA
ATOM     18  N   ALA A   9      33.121  -0.078   5.403  0.00  0.00    -0.297 N 
ATOM     19  H   ALA A   9      32.213   0.068   4.918  0.00  0.00    +0.150 HD
BRANCH  18  20
ATOM     20  CA  ALA A   9      33.603   0.957   6.300  0.00  0.00    +0.149 C 
ATOM     21  CB  ALA A   9      32.535   2.077   6.430  0.00  0.00    +0.031 C 
BRANCH  20  22
ATOM     22  C   ALA A   9      33.977   0.418   7.679  0.00  0.00    +0.241 C 
ATOM     23  O   ALA A   9      34.867   0.957   8.345  0.00  0.00    -0.273 OA
ATOM     24  N   PHE A  10      33.313  -0.640   8.132  0.00  0.00    -0.297 N 
ATOM     25  H   PHE A  10      32.633  -1.137   7.523  0.00  0.00    +0.150 HD
BRANCH  24  26
ATOM     26  CA  PHE A  10      33.555  -1.096   9.506  0.00  0.00    +0.153 C 
BRANCH  26  27
ATOM     27  C   PHE A  10      34.662  -2.152   9.644  0.00  0.00    +0.241 C 
ATOM     28  O   PHE A  10      35.006  -2.537  10.765  0.00  0.00    -0.273 OA
ATOM     29  N   GLY A  11      35.272  -2.549   8.526  0.00  0.00    -0.295 N 
ATOM     30  H   GLY A  11      34.867  -2.293   7.603  0.00  0.00    +0.150 HD
BRANCH  29  31
ATOM     31  CA  GLY A  11      36.516  -3.348   8.581  0.00  0.00    +0.176 C 
BRANCH  31  32
ATOM     32  C   GLY A  11      36.383  -4.830   8.910  0.00  0.00    +0.243 C 
ATOM     33  O   GLY A  11      37.387  -5.527   9.075  0.00  0.00    -0.273 OA
ATOM     34  N   GLY A  12      35.160  -5.334   8.994  0.00  0.00    -0.296 N 
ATOM     35  H   GLY A  12      34.340  -4.707   8.862  0.00  0.00    +0.150 HD
BRANCH  34  36
ATOM     36  CA  GLY A  12      34.940  -6.753   9.268  0.00  0.00    +0.163 C 
BRANCH  36  37
ATOM     37  C   GLY A  12      35.368  -7.708   8.160  0.00  0.00    +0.229 C 
ATOM     38  O   GLY A  12      35.479  -7.322   6.976  0.00  0.00    -0.286 OA
ENDBRANCH  36  37
ENDBRANCH  34  36
ENDBRANCH  31  32
ENDBRANCH  29  31
ENDBRANCH  26  27
BRANCH  26  39
ATOM     39  CB  PHE A  10      32.256  -1.504  10.172  0.00  0.00    +0.055 C 
BRANCH  39  40
ATOM     40  CG  PHE A  10      31.497  -0.356  10.790  0.00  0.00    -0.020 A 
ATOM     41  CD2 PHE A  10      30.425  -0.622  11.608  0.00  0.00    -0.004 A 
ATOM     42  CE2 PHE A  10      29.709   0.367  12.158  0.00  0.00    -0.000 A 
ATOM     43  CZ  PHE A  10      30.059   1.719  11.918  0.00  0.00    -0.000 A 
ATOM     44  CE1 PHE A  10      31.122   2.008  11.135  0.00  0.00    -0.000 A 
ATOM     45  CD1 PHE A  10      31.840   0.981  10.559  0.00  0.00    -0.004 A 
ENDBRANCH  39  40
ENDBRANCH  26  39
ENDBRANCH  24  26
ENDBRANCH  20  22
ENDBRANCH  18  20
ENDBRANCH  15  16
ENDBRANCH  12  15
ENDBRANCH  10  11
BRANCH  10  46
ATOM     46  CB  CYS A   7      32.391  -6.827   5.541  0.00  0.00    +0.098 C 
ATOM     47  SG  CYS A   7      32.230  -8.121   6.808  0.00  0.00    -0.080 S 
ENDBRANCH  10  46
ENDBRANCH   8  10
ENDBRANCH   5   6
ENDBRANCH   3   5
BRANCH   1  48
ATOM     48  CA  TRP A   5      27.345  -6.473   7.067  0.00  0.00    +0.153 C 
BRANCH  48  50
ATOM     49  C   ASN A   4      28.475  -6.951   4.881  0.00  0.00    +0.241 C 
ATOM     50  N   TRP A   5      27.583  -7.251   5.830  0.00  0.00    -0.297 N 
ATOM     51  H   TRP A   5      27.006  -8.105   5.687  0.00  0.00    +0.150 HD
ATOM     52  O   ASN A   4      29.261  -6.037   4.951  0.00  0.00    -0.273 OA
BRANCH  49  53
ATOM     53  CA  ASN A   4      28.491  -7.887   3.688  0.00  0.00    +0.158 C 
BRANCH  53  56
ATOM     54  C   GLY A   3      26.282  -8.930   3.523  0.00  0.00    +0.243 C 
ATOM     55  O   GLY A   3      26.322  -9.465   4.661  0.00  0.00    -0.273 OA
ATOM     56  N   ASN A   4      27.182  -8.041   3.075  0.00  0.00    -0.297 N 
ATOM     57  H   ASN A   4      26.935  -7.442   2.262  0.00  0.00    +0.150 HD
BRANCH  54  58
ATOM     58  CA  GLY A   3      25.114  -9.206   2.611  0.00  0.00    +0.176 C 
BRANCH  58  60
ATOM     59  C   THR A   2      22.718  -9.493   2.898  0.00  0.00    +0.243 C 
ATOM     60  N   GLY A   3      23.895  -9.151   3.395  0.00  0.00    -0.295 N 
ATOM     61  H   GLY A   3      23.948  -8.831   4.383  0.00  0.00    +0.150 HD
ATOM     62  O   THR A   2      22.548  -9.787   1.710  0.00  0.00    -0.273 OA
BRANCH  59  63
ATOM     63  CA  THR A   2      21.550  -9.352   3.836  0.00  0.00    +0.176 C 
BRANCH  63  66
ATOM     64  C   ALA A   1      19.165  -9.398   3.386  0.00  0.00    +0.238 C 
ATOM     65  O   ALA A   1      18.964  -8.333   3.990  0.00  0.00    -0.274 OA
ATOM     66  N   THR A   2      20.369  -9.951   3.261  0.00  0.00    -0.295 N 
ATOM     67  H   THR A   2      20.462 -10.842   2.733  0.00  0.00    +0.150 HD
BRANCH  64  68
ATOM     68  CA  ALA A   1      18.017 -10.216   2.800  0.00  0.00    +0.145 C 
ATOM     69  CB  ALA A   1      17.074  -9.347   1.940  0.00  0.00    +0.028 C 
BRANCH  68  70
ATOM     70  N   ALA A   1      17.299 -10.769   3.929  0.00  0.00    -0.238 NA
ATOM     71  H   ALA A   1      16.611 -10.163   4.420  0.00  0.00    +0.142 HD
ENDBRANCH  68  70
ENDBRANCH  64  68
ENDBRANCH  63  66
BRANCH  63  72
ATOM     72  CB  THR A   2      21.804  -9.912   5.266  0.00  0.00    +0.137 C 
ATOM     73  CG2 THR A   2      22.151 -11.419   5.236  0.00  0.00    +0.034 C 
BRANCH  72  74
ATOM     74  OG1 THR A   2      22.811  -9.138   5.913  0.00  0.00    -0.382 OA
ATOM     75  HG1 THR A   2      22.969  -9.498   6.822  0.00  0.00    +0.210 HD
ENDBRANCH  72  74
ENDBRANCH  63  72
ENDBRANCH  59  63
ENDBRANCH  58  60
ENDBRANCH  54  58
ENDBRANCH  53  56
BRANCH  53  76
ATOM     76  CB  ASN A   4      29.515  -7.449   2.641  0.00  0.00    +0.114 C 
BRANCH  76  77
ATOM     77  CG  ASN A   4      29.677  -8.466   1.474  0.00  0.00    +0.222 C 
ATOM     78  OD1 ASN A   4      29.556  -9.680   1.643  0.00  0.00    -0.275 OA
ATOM     79  ND2 ASN A   4      29.968  -7.942   0.287  0.00  0.00    -0.329 N 
ATOM     80 HD21 ASN A   4      30.062  -6.912   0.182  0.00  0.00    +0.145 HD
ATOM     81 HD22 ASN A   4      30.101  -8.563  -0.537  0.00  0.00    +0.145 HD
ENDBRANCH  76  77
ENDBRANCH  53  76
ENDBRANCH  49  53
ENDBRANCH  48  50
BRANCH  48  82
ATOM     82  CB  TRP A   5      26.354  -7.223   7.951  0.00  0.00    +0.057 C 
BRANCH  82  83
ATOM     83  CG  TRP A   5      26.038  -6.569   9.319  0.00  0.00    -0.002 A 
ATOM     84  CD2 TRP A   5      25.993  -7.245  10.582  0.00  0.00    +0.013 A 
ATOM     85  CE2 TRP A   5      25.615  -6.304  11.549  0.00  0.00    +0.056 A 
ATOM     86  CZ2 TRP A   5      25.494  -6.632  12.901  0.00  0.00    +0.017 A 
ATOM     87  CH2 TRP A   5      25.747  -7.939  13.258  0.00  0.00    +0.001 A 
ATOM     88  CZ3 TRP A   5      26.103  -8.895  12.323  0.00  0.00    +0.000 A 
ATOM     89  NE1 TRP A   5      25.431  -5.104  10.907  0.00  0.00    -0.352 N 
ATOM     90  HE1 TRP A   5      25.141  -4.215  11.361  0.00  0.00    +0.166 HD
ATOM     91  CE3 TRP A   5      26.220  -8.572  10.976  0.00  0.00    +0.001 A 
ATOM     92  CD1 TRP A   5      25.691  -5.267   9.573  0.00  0.00    +0.068 A 
ENDBRANCH  82  83
ENDBRANCH  48  82
ENDBRANCH   1  48
TORSDOF 33
REMARK  Name = ../refined-set-2016/4b1j/4b1j_pocket.pdb
REMARK  221 active torsions:
REMARK  status: ('A' for Active; 'I' for Inactive)
REMARK    1  A    between atoms: _1  and  _3
REMARK    2  A    between atoms: _3  and  _4
REMARK    3  A    between atoms: _3  and  _6
REMARK    4  A    between atoms: _6  and  _7
REMARK    5  A    between atoms: _7  and  _8
REMARK    6  A    between atoms: _11  and  _13
REMARK    7  A    between atoms: _13  and  _14
REMARK    8  A    between atoms: _16  and  _18
REMARK    9  A    between atoms: _18  and  _19
REMARK   10  A    between atoms: _18  and  _21
REMARK   11  A    between atoms: _21  and  _22
REMARK   12  A    between atoms: _25  and  _27
REMARK   13  A    between atoms: _27  and  _28
REMARK   14  A    between atoms: _27  and  _30
REMARK   15  A    between atoms: _30  and  _31
REMARK   16  A    between atoms: _34  and  _36
REMARK   17  A    between atoms: _36  and  _37
REMARK   18  A    between atoms: _36  and  _39
REMARK   19  A    between atoms: _39  and  _40
REMARK   20  A    between atoms: _40  and  _41
REMARK   21  A    between atoms: _44  and  _46
REMARK   22  A    between atoms: _46  and  _47
REMARK   23  A    between atoms: _46  and  _49
REMARK   24  A    between atoms: _49  and  _50
REMARK   25  A    between atoms: _50  and  _51
REMARK   26  A    between atoms: _54  and  _56
REMARK   27  A    between atoms: _56  and  _57
REMARK   28  A    between atoms: _56  and  _59
REMARK   29  A    between atoms: _59  and  _60
REMARK   30  A    between atoms: _65  and  _67
REMARK   31  A    between atoms: _67  and  _68
REMARK   32  A    between atoms: _67  and  _70
REMARK   33  A    between atoms: _73  and  _75
REMARK   34  A    between atoms: _75  and  _76
REMARK   35  A    between atoms: _75  and  _78
REMARK   36  A    between atoms: _78  and  _79
REMARK   37  A    between atoms: _82  and  _84
REMARK   38  A    between atoms: _84  and  _85
REMARK   39  A    between atoms: _84  and  _87
REMARK   40  A    between atoms: _87  and  _88
REMARK   41  A    between atoms: _94  and  _96
REMARK   42  A    between atoms: _96  and  _97
REMARK   43  A    between atoms: _100  and  _102
REMARK   44  A    between atoms: _102  and  _103
REMARK   45  A    between atoms: _102  and  _105
REMARK   46  A    between atoms: _105  and  _106
REMARK   47  A    between atoms: _111  and  _113
REMARK   48  A    between atoms: _113  and  _114
REMARK   49  A    between atoms: _113  and  _116
REMARK   50  A    between atoms: _116  and  _117
REMARK   51  A    between atoms: _117  and  _118
REMARK   52  A    between atoms: _118  and  _119
REMARK   53  A    between atoms: _128  and  _130
REMARK   54  A    between atoms: _130  and  _131
REMARK   55  A    between atoms: _130  and  _133
REMARK   56  A    between atoms: _133  and  _134
REMARK   57  A    between atoms: _140  and  _142
REMARK   58  A    between atoms: _142  and  _143
REMARK   59  A    between atoms: _142  and  _145
REMARK   60  A    between atoms: _148  and  _150
REMARK   61  A    between atoms: _150  and  _151
REMARK   62  A    between atoms: _153  and  _155
REMARK   63  A    between atoms: _155  and  _156
REMARK   64  A    between atoms: _158  and  _160
REMARK   65  A    between atoms: _160  and  _161
REMARK   66  A    between atoms: _163  and  _165
REMARK   67  A    between atoms: _165  and  _166
REMARK   68  A    between atoms: _165  and  _168
REMARK   69  A    between atoms: _171  and  _173
REMARK   70  A    between atoms: _173  and  _174
REMARK   71  A    between atoms: _176  and  _178
REMARK   72  A    between atoms: _178  and  _179
REMARK   73  A    between atoms: _178  and  _181
REMARK   74  A    between atoms: _181  and  _182
REMARK   75  A    between atoms: _185  and  _187
REMARK   76  A    between atoms: _187  and  _188
REMARK   77  A    between atoms: _187  and  _190
REMARK   78  A    between atoms: _193  and  _195
REMARK   79  A    between atoms: _195  and  _196
REMARK   80  A    between atoms: _195  and  _198
REMARK   81  A    between atoms: _198  and  _199
REMARK   82  A    between atoms: _199  and  _200
REMARK   83  A    between atoms: _205  and  _207
REMARK   84  A    between atoms: _207  and  _208
REMARK   85  A    between atoms: _207  and  _210
REMARK   86  A    between atoms: _210  and  _211
REMARK   87  A    between atoms: _211  and  _212
REMARK   88  A    between atoms: _215  and  _217
REMARK   89  A    between atoms: _217  and  _218
REMARK   90  A    between atoms: _217  and  _220
REMARK   91  A    between atoms: _220  and  _221
REMARK   92  A    between atoms: _221  and  _222
REMARK   93  A    between atoms: _225  and  _227
REMARK   94  A    between atoms: _227  and  _228
REMARK   95  A    between atoms: _227  and  _230
REMARK   96  A    between atoms: _230  and  _231
REMARK   97  A    between atoms: _234  and  _236
REMARK   98  A    between atoms: _236  and  _237
REMARK   99  A    between atoms: _236  and  _239
REMARK  100  A    between atoms: _239  and  _240
REMARK  101  A    between atoms: _240  and  _241
REMARK  102  A    between atoms: _241  and  _242
REMARK  103  A    between atoms: _251  and  _253
REMARK  104  A    between atoms: _253  and  _254
REMARK  105  A    between atoms: _253  and  _256
REMARK  106  A    between atoms: _256  and  _257
REMARK  107  A    between atoms: _263  and  _265
REMARK  108  A    between atoms: _265  and  _266
REMARK  109  A    between atoms: _265  and  _268
REMARK  110  A    between atoms: _268  and  _269
REMARK  111  A    between atoms: _272  and  _274
REMARK  112  A    between atoms: _274  and  _275
REMARK  113  A    between atoms: _274  and  _277
REMARK  114  A    between atoms: _277  and  _278
REMARK  115  A    between atoms: _278  and  _279
REMARK  116  A    between atoms: _279  and  _280
REMARK  117  A    between atoms: _289  and  _291
REMARK  118  A    between atoms: _291  and  _292
REMARK  119  A    between atoms: _291  and  _294
REMARK  120  A    between atoms: _294  and  _295
REMARK  121  A    between atoms: _300  and  _301
REMARK  122  A    between atoms: _303  and  _305
REMARK  123  A    between atoms: _305  and  _306
REMARK  124  A    between atoms: _308  and  _310
REMARK  125  A    between atoms: _310  and  _311
REMARK  126  A    between atoms: _310  and  _313
REMARK  127  A    between atoms: _313  and  _314
REMARK  128  A    between atoms: _319  and  _320
REMARK  129  A    between atoms: _322  and  _324
REMARK  130  A    between atoms: _324  and  _325
REMARK  131  A    between atoms: _328  and  _330
REMARK  132  A    between atoms: _330  and  _331
REMARK  133  A    between atoms: _330  and  _333
REMARK  134  A    between atoms: _333  and  _334
REMARK  135  A    between atoms: _337  and  _339
REMARK  136  A    between atoms: _339  and  _340
REMARK  137  A    between atoms: _339  and  _342
REMARK  138  A    between atoms: _342  and  _343
REMARK  139  A    between atoms: _346  and  _348
REMARK  140  A    between atoms: _348  and  _349
REMARK  141  A    between atoms: _352  and  _354
REMARK  142  A    between atoms: _354  and  _355
REMARK  143  A    between atoms: _354  and  _357
REMARK  144  A    between atoms: _357  and  _358
REMARK  145  A    between atoms: _361  and  _363
REMARK  146  A    between atoms: _363  and  _364
REMARK  147  A    between atoms: _363  and  _366
REMARK  148  A    between atoms: _366  and  _367
REMARK  149  A    between atoms: _372  and  _374
REMARK  150  A    between atoms: _374  and  _375
REMARK  151  A    between atoms: _374  and  _377
REMARK  152  A    between atoms: _377  and  _378
REMARK  153  A    between atoms: _384  and  _386
REMARK  154  A    between atoms: _386  and  _387
REMARK  155  A    between atoms: _390  and  _392
REMARK  156  A    between atoms: _392  and  _393
REMARK  157  A    between atoms: _392  and  _395
REMARK  158  A    between atoms: _395  and  _396
REMARK  159  A    between atoms: _399  and  _401
REMARK  160  A    between atoms: _401  and  _402
REMARK  161  A    between atoms: _404  and  _406
REMARK  162  A    between atoms: _406  and  _407
REMARK  163  A    between atoms: _406  and  _409
REMARK  164  A    between atoms: _409  and  _410
REMARK  165  A    between atoms: _415  and  _417
REMARK  166  A    between atoms: _417  and  _418
REMARK  167  A    between atoms: _417  and  _420
REMARK  168  A    between atoms: _420  and  _421
REMARK  169  A    between atoms: _431  and  _433
REMARK  170  A    between atoms: _433  and  _434
REMARK  171  A    between atoms: _436  and  _438
REMARK  172  A    between atoms: _438  and  _439
REMARK  173  A    between atoms: _438  and  _441
REMARK  174  A    between atoms: _443  and  _445
REMARK  175  A    between atoms: _445  and  _446
REMARK  176  A    between atoms: _448  and  _450
REMARK  177  A    between atoms: _450  and  _451
REMARK  178  A    between atoms: _454  and  _456
REMARK  179  A    between atoms: _456  and  _457
REMARK  180  A    between atoms: _456  and  _459
REMARK  181  A    between atoms: _459  and  _460
REMARK  182  A    between atoms: _466  and  _468
REMARK  183  A    between atoms: _468  and  _469
REMARK  184  A    between atoms: _471  and  _473
REMARK  185  A    between atoms: _473  and  _474
REMARK  186  A    between atoms: _476  and  _478
REMARK  187  A    between atoms: _478  and  _479
REMARK  188  A    between atoms: _482  and  _484
REMARK  189  A    between atoms: _484  and  _485
REMARK  190  A    between atoms: _484  and  _487
REMARK  191  A    between atoms: _487  and  _488
REMARK  192  A    between atoms: _488  and  _489
REMARK  193  A    between atoms: _489  and  _490
REMARK  194  A    between atoms: _490  and  _491
REMARK  195  A    between atoms: _495  and  _497
REMARK  196  A    between atoms: _497  and  _498
REMARK  197  A    between atoms: _497  and  _500
REMARK  198  A    between atoms: _500  and  _501
REMARK  199  A    between atoms: _506  and  _507
REMARK  200  A    between atoms: _509  and  _511
REMARK  201  A    between atoms: _511  and  _512
REMARK  202  A    between atoms: _511  and  _514
REMARK  203  A    between atoms: _514  and  _515
REMARK  204  A    between atoms: _521  and  _523
REMARK  205  A    between atoms: _523  and  _524
REMARK  206  A    between atoms: _523  and  _526
REMARK  207  A    between atoms: _526  and  _527
REMARK  208  A    between atoms: _530  and  _532
REMARK  209  A    between atoms: _532  and  _533
REMARK  210  A    between atoms: _532  and  _535
REMARK  211  A    between atoms: _535  and  _536
REMARK  212  A    between atoms: _542  and  _544
REMARK  213  A    between atoms: _544  and  _545
REMARK  214  A    between atoms: _547  and  _549
REMARK  215  A    between atoms: _549  and  _550
REMARK  216  A    between atoms: _549  and  _552
REMARK  217  A    between atoms: _552  and  _553
REMARK  218  A    between atoms: _556  and  _558
REMARK  219  A    between atoms: _558  and  _559
REMARK  220  A    between atoms: _558  and  _561
REMARK  221  A    between atoms: _561  and  _562
REMARK                            x       y       z     vdW  Elec       q    Type
REMARK                         _______ _______ _______ _____ _____    ______ ____
ROOT
ATOM      1  CA  ALA A   1      33.054 -11.085   5.278  0.00  0.00    +0.133 C 
ATOM      2  CB  ALA A   1      33.039 -10.763   3.751  0.00  0.00    +0.027 C 
ENDROOT
BRANCH   1   3
ATOM      3  N   ALA A   1      34.312 -10.701   5.839  0.00  0.00    -0.239 NA
ATOM      4  H   ALA A   1      35.080 -10.420   5.196  0.00  0.00    +0.142 HD
ENDBRANCH   1   3
BRANCH   1   5
ATOM      5  C   ALA A   1      32.709 -12.536   5.528  0.00  0.00    +0.224 C 
ATOM      6  O   ALA A   1      31.536 -12.878   5.731  0.00  0.00    -0.287 OA
ENDBRANCH   1   5
TORSDOF 2
REMARK  Name = ../refined-set-2016/4b1j/4b1j_pocket.pdb
REMARK  221 active torsions:
REMARK  status: ('A' for Active; 'I' for Inactive)
REMARK    1  A    between atoms: _1  and  _3
REMARK    2  A    between atoms: _3  and  _4
REMARK    3  A    between atoms: _3  and  _6
REMARK    4  A    between atoms: _6  and  _7
REMARK    5  A    between atoms: _7  and  _8
REMARK    6  A    between atoms: _11  and  _13
REMARK    7  A    between atoms: _13  and  _14
REMARK    8  A    between atoms: _16  and  _18
REMARK    9  A    between atoms: _18  and  _19
REMARK   10  A    between atoms: _18  and  _21
REMARK   11  A    between atoms: _21  and  _22
REMARK   12  A    between atoms: _25  and  _27
REMARK   13  A    between atoms: _27  and  _28
REMARK   14  A    between atoms: _27  and  _30
REMARK   15  A    between atoms: _30  and  _31
REMARK   16  A    between atoms: _34  and  _36
REMARK   17  A    between atoms: _36  and  _37
REMARK   18  A    between atoms: _36  and  _39
REMARK   19  A    between atoms: _39  and  _40
REMARK   20  A    between atoms: _40  and  _41
REMARK   21  A    between atoms: _44  and  _46
REMARK   22  A    between atoms: _46  and  _47
REMARK   23  A    between atoms: _46  and  _49
REMARK   24  A    between atoms: _49  and  _50
REMARK   25  A    between atoms: _50  and  _51
REMARK   26  A    between atoms: _54  and  _56
REMARK   27  A    between atoms: _56  and  _57
REMARK   28  A    between atoms: _56  and  _59
REMARK   29  A    between atoms: _59  and  _60
REMARK   30  A    between atoms: _65  and  _67
REMARK   31  A    between atoms: _67  and  _68
REMARK   32  A    between atoms: _67  and  _70
REMARK   33  A    between atoms: _73  and  _75
REMARK   34  A    between atoms: _75  and  _76
REMARK   35  A    between atoms: _75  and  _78
REMARK   36  A    between atoms: _78  and  _79
REMARK   37  A    between atoms: _82  and  _84
REMARK   38  A    between atoms: _84  and  _85
REMARK   39  A    between atoms: _84  and  _87
REMARK   40  A    between atoms: _87  and  _88
REMARK   41  A    between atoms: _94  and  _96
REMARK   42  A    between atoms: _96  and  _97
REMARK   43  A    between atoms: _100  and  _102
REMARK   44  A    between atoms: _102  and  _103
REMARK   45  A    between atoms: _102  and  _105
REMARK   46  A    between atoms: _105  and  _106
REMARK   47  A    between atoms: _111  and  _113
REMARK   48  A    between atoms: _113  and  _114
REMARK   49  A    between atoms: _113  and  _116
REMARK   50  A    between atoms: _116  and  _117
REMARK   51  A    between atoms: _117  and  _118
REMARK   52  A    between atoms: _118  and  _119
REMARK   53  A    between atoms: _128  and  _130
REMARK   54  A    between atoms: _130  and  _131
REMARK   55  A    between atoms: _130  and  _133
REMARK   56  A    between atoms: _133  and  _134
REMARK   57  A    between atoms: _140  and  _142
REMARK   58  A    between atoms: _142  and  _143
REMARK   59  A    between atoms: _142  and  _145
REMARK   60  A    between atoms: _148  and  _150
REMARK   61  A    between atoms: _150  and  _151
REMARK   62  A    between atoms: _153  and  _155
REMARK   63  A    between atoms: _155  and  _156
REMARK   64  A    between atoms: _158  and  _160
REMARK   65  A    between atoms: _160  and  _161
REMARK   66  A    between atoms: _163  and  _165
REMARK   67  A    between atoms: _165  and  _166
REMARK   68  A    between atoms: _165  and  _168
REMARK   69  A    between atoms: _171  and  _173
REMARK   70  A    between atoms: _173  and  _174
REMARK   71  A    between atoms: _176  and  _178
REMARK   72  A    between atoms: _178  and  _179
REMARK   73  A    between atoms: _178  and  _181
REMARK   74  A    between atoms: _181  and  _182
REMARK   75  A    between atoms: _185  and  _187
REMARK   76  A    between atoms: _187  and  _188
REMARK   77  A    between atoms: _187  and  _190
REMARK   78  A    between atoms: _193  and  _195
REMARK   79  A    between atoms: _195  and  _196
REMARK   80  A    between atoms: _195  and  _198
REMARK   81  A    between atoms: _198  and  _199
REMARK   82  A    between atoms: _199  and  _200
REMARK   83  A    between atoms: _205  and  _207
REMARK   84  A    between atoms: _207  and  _208
REMARK   85  A    between atoms: _207  and  _210
REMARK   86  A    between atoms: _210  and  _211
REMARK   87  A    between atoms: _211  and  _212
REMARK   88  A    between atoms: _215  and  _217
REMARK   89  A    between atoms: _217  and  _218
REMARK   90  A    between atoms: _217  and  _220
REMARK   91  A    between atoms: _220  and  _221
REMARK   92  A    between atoms: _221  and  _222
REMARK   93  A    between atoms: _225  and  _227
REMARK   94  A    between atoms: _227  and  _228
REMARK   95  A    between atoms: _227  and  _230
REMARK   96  A    between atoms: _230  and  _231
REMARK   97  A    between atoms: _234  and  _236
REMARK   98  A    between atoms: _236  and  _237
REMARK   99  A    between atoms: _236  and  _239
REMARK  100  A    between atoms: _239  and  _240
REMARK  101  A    between atoms: _240  and  _241
REMARK  102  A    between atoms: _241  and  _242
REMARK  103  A    between atoms: _251  and  _253
REMARK  104  A    between atoms: _253  and  _254
REMARK  105  A    between atoms: _253  and  _256
REMARK  106  A    between atoms: _256  and  _257
REMARK  107  A    between atoms: _263  and  _265
REMARK  108  A    between atoms: _265  and  _266
REMARK  109  A    between atoms: _265  and  _268
REMARK  110  A    between atoms: _268  and  _269
REMARK  111  A    between atoms: _272  and  _274
REMARK  112  A    between atoms: _274  and  _275
REMARK  113  A    between atoms: _274  and  _277
REMARK  114  A    between atoms: _277  and  _278
REMARK  115  A    between atoms: _278  and  _279
REMARK  116  A    between atoms: _279  and  _280
REMARK  117  A    between atoms: _289  and  _291
REMARK  118  A    between atoms: _291  and  _292
REMARK  119  A    between atoms: _291  and  _294
REMARK  120  A    between atoms: _294  and  _295
REMARK  121  A    between atoms: _300  and  _301
REMARK  122  A    between atoms: _303  and  _305
REMARK  123  A    between atoms: _305  and  _306
REMARK  124  A    between atoms: _308  and  _310
REMARK  125  A    between atoms: _310  and  _311
REMARK  126  A    between atoms: _310  and  _313
REMARK  127  A    between atoms: _313  and  _314
REMARK  128  A    between atoms: _319  and  _320
REMARK  129  A    between atoms: _322  and  _324
REMARK  130  A    between atoms: _324  and  _325
REMARK  131  A    between atoms: _328  and  _330
REMARK  132  A    between atoms: _330  and  _331
REMARK  133  A    between atoms: _330  and  _333
REMARK  134  A    between atoms: _333  and  _334
REMARK  135  A    between atoms: _337  and  _339
REMARK  136  A    between atoms: _339  and  _340
REMARK  137  A    between atoms: _339  and  _342
REMARK  138  A    between atoms: _342  and  _343
REMARK  139  A    between atoms: _346  and  _348
REMARK  140  A    between atoms: _348  and  _349
REMARK  141  A    between atoms: _352  and  _354
REMARK  142  A    between atoms: _354  and  _355
REMARK  143  A    between atoms: _354  and  _357
REMARK  144  A    between atoms: _357  and  _358
REMARK  145  A    between atoms: _361  and  _363
REMARK  146  A    between atoms: _363  and  _364
REMARK  147  A    between atoms: _363  and  _366
REMARK  148  A    between atoms: _366  and  _367
REMARK  149  A    between atoms: _372  and  _374
REMARK  150  A    between atoms: _374  and  _375
REMARK  151  A    between atoms: _374  and  _377
REMARK  152  A    between atoms: _377  and  _378
REMARK  153  A    between atoms: _384  and  _386
REMARK  154  A    between atoms: _386  and  _387
REMARK  155  A    between atoms: _390  and  _392
REMARK  156  A    between atoms: _392  and  _393
REMARK  157  A    between atoms: _392  and  _395
REMARK  158  A    between atoms: _395  and  _396
REMARK  159  A    between atoms: _399  and  _401
REMARK  160  A    between atoms: _401  and  _402
REMARK  161  A    between atoms: _404  and  _406
REMARK  162  A    between atoms: _406  and  _407
REMARK  163  A    between atoms: _406  and  _409
REMARK  164  A    between atoms: _409  and  _410
REMARK  165  A    between atoms: _415  and  _417
REMARK  166  A    between atoms: _417  and  _418
REMARK  167  A    between atoms: _417  and  _420
REMARK  168  A    between atoms: _420  and  _421
REMARK  169  A    between atoms: _431  and  _433
REMARK  170  A    between atoms: _433  and  _434
REMARK  171  A    between atoms: _436  and  _438
REMARK  172  A    between atoms: _438  and  _439
REMARK  173  A    between atoms: _438  and  _441
REMARK  174  A    between atoms: _443  and  _445
REMARK  175  A    between atoms: _445  and  _446
REMARK  176  A    between atoms: _448  and  _450
REMARK  177  A    between atoms: _450  and  _451
REMARK  178  A    between atoms: _454  and  _456
REMARK  179  A    between atoms: _456  and  _457
REMARK  180  A    between atoms: _456  and  _459
REMARK  181  A    between atoms: _459  and  _460
REMARK  182  A    between atoms: _466  and  _468
REMARK  183  A    between atoms: _468  and  _469
REMARK  184  A    between atoms: _471  and  _473
REMARK  185  A    between atoms: _473  and  _474
REMARK  186  A    between atoms: _476  and  _478
REMARK  187  A    between atoms: _478  and  _479
REMARK  188  A    between atoms: _482  and  _484
REMARK  189  A    between atoms: _484  and  _485
REMARK  190  A    between atoms: _484  and  _487
REMARK  191  A    between atoms: _487  and  _488
REMARK  192  A    between atoms: _488  and  _489
REMARK  193  A    between atoms: _489  and  _490
REMARK  194  A    between atoms: _490  and  _491
REMARK  195  A    between atoms: _495  and  _497
REMARK  196  A    between atoms: _497  and  _498
REMARK  197  A    between atoms: _497  and  _500
REMARK  198  A    between atoms: _500  and  _501
REMARK  199  A    between atoms: _506  and  _507
REMARK  200  A    between atoms: _509  and  _511
REMARK  201  A    between atoms: _511  and  _512
REMARK  202  A    between atoms: _511  and  _514
REMARK  203  A    between atoms: _514  and  _515
REMARK  204  A    between atoms: _521  and  _523
REMARK  205  A    between atoms: _523  and  _524
REMARK  206  A    between atoms: _523  and  _526
REMARK  207  A    between atoms: _526  and  _527
REMARK  208  A    between atoms: _530  and  _532
REMARK  209  A    between atoms: _532  and  _533
REMARK  210  A    between atoms: _532  and  _535
REMARK  211  A    between atoms: _535  and  _536
REMARK  212  A    between atoms: _542  and  _544
REMARK  213  A    between atoms: _544  and  _545
REMARK  214  A    between atoms: _547  and  _549
REMARK  215  A    between atoms: _549  and  _550
REMARK  216  A    between atoms: _549  and  _552
REMARK  217  A    between atoms: _552  and  _553
REMARK  218  A    between atoms: _556  and  _558
REMARK  219  A    between atoms: _558  and  _559
REMARK  220  A    between atoms: _558  and  _561
REMARK  221  A    between atoms: _561  and  _562
REMARK                            x       y       z     vdW  Elec       q    Type
REMARK                         _______ _______ _______ _____ _____    ______ ____
ROOT
ATOM      1  CG  LYS A   1      30.810  -9.816   9.782  0.00  0.00    -0.000 C 
ENDROOT
BRANCH   1   2
ATOM      2  CB  LYS A   1      30.242 -10.820   8.884  0.00  0.00    +0.025 C 
BRANCH   2   3
ATOM      3  CA  LYS A   1      30.348 -12.239   9.392  0.00  0.00    +0.133 C 
BRANCH   3   4
ATOM      4  N   LYS A   1      31.650 -12.832   9.132  0.00  0.00    -0.239 NA
ATOM      5  H   LYS A   1      32.340 -12.339   8.530  0.00  0.00    +0.142 HD
ENDBRANCH   3   4
BRANCH   3   6
ATOM      6  C   LYS A   1      29.257 -13.052   8.760  0.00  0.00    +0.224 C 
ATOM      7  O   LYS A   1      28.151 -13.111   9.284  0.00  0.00    -0.287 OA
ENDBRANCH   3   6
ENDBRANCH   2   3
ENDBRANCH   1   2
BRANCH   1   8
ATOM      8  CD  LYS A   1      29.950  -9.576  11.006  0.00  0.00    -0.024 C 
BRANCH   8   9
ATOM      9  CE  LYS A   1      29.952  -8.110  11.387  0.00  0.00    -0.086 C 
BRANCH   9  10
ATOM     10  NZ  LYS A   1      31.209  -7.630  11.997  0.00  0.00    +0.380 N 
ATOM     11  HZ1 LYS A   1      31.398  -8.167  12.868  0.00  0.00    -0.089 HD
ATOM     12  HZ2 LYS A   1      31.119  -6.619  12.224  0.00  0.00    -0.089 HD
ATOM     13  HZ3 LYS A   1      31.993  -7.767  11.327  0.00  0.00    -0.089 HD
ENDBRANCH   9  10
ENDBRANCH   8   9
ENDBRANCH   1   8
TORSDOF 7
REMARK  Name = ../refined-set-2016/4b1j/4b1j_pocket.pdb
REMARK  221 active torsions:
REMARK  status: ('A' for Active; 'I' for Inactive)
REMARK    1  A    between atoms: _1  and  _3
REMARK    2  A    between atoms: _3  and  _4
REMARK    3  A    between atoms: _3  and  _6
REMARK    4  A    between atoms: _6  and  _7
REMARK    5  A    between atoms: _7  and  _8
REMARK    6  A    between atoms: _11  and  _13
REMARK    7  A    between atoms: _13  and  _14
REMARK    8  A    between atoms: _16  and  _18
REMARK    9  A    between atoms: _18  and  _19
REMARK   10  A    between atoms: _18  and  _21
REMARK   11  A    between atoms: _21  and  _22
REMARK   12  A    between atoms: _25  and  _27
REMARK   13  A    between atoms: _27  and  _28
REMARK   14  A    between atoms: _27  and  _30
REMARK   15  A    between atoms: _30  and  _31
REMARK   16  A    between atoms: _34  and  _36
REMARK   17  A    between atoms: _36  and  _37
REMARK   18  A    between atoms: _36  and  _39
REMARK   19  A    between atoms: _39  and  _40
REMARK   20  A    between atoms: _40  and  _41
REMARK   21  A    between atoms: _44  and  _46
REMARK   22  A    between atoms: _46  and  _47
REMARK   23  A    between atoms: _46  and  _49
REMARK   24  A    between atoms: _49  and  _50
REMARK   25  A    between atoms: _50  and  _51
REMARK   26  A    between atoms: _54  and  _56
REMARK   27  A    between atoms: _56  and  _57
REMARK   28  A    between atoms: _56  and  _59
REMARK   29  A    between atoms: _59  and  _60
REMARK   30  A    between atoms: _65  and  _67
REMARK   31  A    between atoms: _67  and  _68
REMARK   32  A    between atoms: _67  and  _70
REMARK   33  A    between atoms: _73  and  _75
REMARK   34  A    between atoms: _75  and  _76
REMARK   35  A    between atoms: _75  and  _78
REMARK   36  A    between atoms: _78  and  _79
REMARK   37  A    between atoms: _82  and  _84
REMARK   38  A    between atoms: _84  and  _85
REMARK   39  A    between atoms: _84  and  _87
REMARK   40  A    between atoms: _87  and  _88
REMARK   41  A    between atoms: _94  and  _96
REMARK   42  A    between atoms: _96  and  _97
REMARK   43  A    between atoms: _100  and  _102
REMARK   44  A    between atoms: _102  and  _103
REMARK   45  A    between atoms: _102  and  _105
REMARK   46  A    between atoms: _105  and  _106
REMARK   47  A    between atoms: _111  and  _113
REMARK   48  A    between atoms: _113  and  _114
REMARK   49  A    between atoms: _113  and  _116
REMARK   50  A    between atoms: _116  and  _117
REMARK   51  A    between atoms: _117  and  _118
REMARK   52  A    between atoms: _118  and  _119
REMARK   53  A    between atoms: _128  and  _130
REMARK   54  A    between atoms: _130  and  _131
REMARK   55  A    between atoms: _130  and  _133
REMARK   56  A    between atoms: _133  and  _134
REMARK   57  A    between atoms: _140  and  _142
REMARK   58  A    between atoms: _142  and  _143
REMARK   59  A    between atoms: _142  and  _145
REMARK   60  A    between atoms: _148  and  _150
REMARK   61  A    between atoms: _150  and  _151
REMARK   62  A    between atoms: _153  and  _155
REMARK   63  A    between atoms: _155  and  _156
REMARK   64  A    between atoms: _158  and  _160
REMARK   65  A    between atoms: _160  and  _161
REMARK   66  A    between atoms: _163  and  _165
REMARK   67  A    between atoms: _165  and  _166
REMARK   68  A    between atoms: _165  and  _168
REMARK   69  A    between atoms: _171  and  _173
REMARK   70  A    between atoms: _173  and  _174
REMARK   71  A    between atoms: _176  and  _178
REMARK   72  A    between atoms: _178  and  _179
REMARK   73  A    between atoms: _178  and  _181
REMARK   74  A    between atoms: _181  and  _182
REMARK   75  A    between atoms: _185  and  _187
REMARK   76  A    between atoms: _187  and  _188
REMARK   77  A    between atoms: _187  and  _190
REMARK   78  A    between atoms: _193  and  _195
REMARK   79  A    between atoms: _195  and  _196
REMARK   80  A    between atoms: _195  and  _198
REMARK   81  A    between atoms: _198  and  _199
REMARK   82  A    between atoms: _199  and  _200
REMARK   83  A    between atoms: _205  and  _207
REMARK   84  A    between atoms: _207  and  _208
REMARK   85  A    between atoms: _207  and  _210
REMARK   86  A    between atoms: _210  and  _211
REMARK   87  A    between atoms: _211  and  _212
REMARK   88  A    between atoms: _215  and  _217
REMARK   89  A    between atoms: _217  and  _218
REMARK   90  A    between atoms: _217  and  _220
REMARK   91  A    between atoms: _220  and  _221
REMARK   92  A    between atoms: _221  and  _222
REMARK   93  A    between atoms: _225  and  _227
REMARK   94  A    between atoms: _227  and  _228
REMARK   95  A    between atoms: _227  and  _230
REMARK   96  A    between atoms: _230  and  _231
REMARK   97  A    between atoms: _234  and  _236
REMARK   98  A    between atoms: _236  and  _237
REMARK   99  A    between atoms: _236  and  _239
REMARK  100  A    between atoms: _239  and  _240
REMARK  101  A    between atoms: _240  and  _241
REMARK  102  A    between atoms: _241  and  _242
REMARK  103  A    between atoms: _251  and  _253
REMARK  104  A    between atoms: _253  and  _254
REMARK  105  A    between atoms: _253  and  _256
REMARK  106  A    between atoms: _256  and  _257
REMARK  107  A    between atoms: _263  and  _265
REMARK  108  A    between atoms: _265  and  _266
REMARK  109  A    between atoms: _265  and  _268
REMARK  110  A    between atoms: _268  and  _269
REMARK  111  A    between atoms: _272  and  _274
REMARK  112  A    between atoms: _274  and  _275
REMARK  113  A    between atoms: _274  and  _277
REMARK  114  A    between atoms: _277  and  _278
REMARK  115  A    between atoms: _278  and  _279
REMARK  116  A    between atoms: _279  and  _280
REMARK  117  A    between atoms: _289  and  _291
REMARK  118  A    between atoms: _291  and  _292
REMARK  119  A    between atoms: _291  and  _294
REMARK  120  A    between atoms: _294  and  _295
REMARK  121  A    between atoms: _300  and  _301
REMARK  122  A    between atoms: _303  and  _305
REMARK  123  A    between atoms: _305  and  _306
REMARK  124  A    between atoms: _308  and  _310
REMARK  125  A    between atoms: _310  and  _311
REMARK  126  A    between atoms: _310  and  _313
REMARK  127  A    between atoms: _313  and  _314
REMARK  128  A    between atoms: _319  and  _320
REMARK  129  A    between atoms: _322  and  _324
REMARK  130  A    between atoms: _324  and  _325
REMARK  131  A    between atoms: _328  and  _330
REMARK  132  A    between atoms: _330  and  _331
REMARK  133  A    between atoms: _330  and  _333
REMARK  134  A    between atoms: _333  and  _334
REMARK  135  A    between atoms: _337  and  _339
REMARK  136  A    between atoms: _339  and  _340
REMARK  137  A    between atoms: _339  and  _342
REMARK  138  A    between atoms: _342  and  _343
REMARK  139  A    between atoms: _346  and  _348
REMARK  140  A    between atoms: _348  and  _349
REMARK  141  A    between atoms: _352  and  _354
REMARK  142  A    between atoms: _354  and  _355
REMARK  143  A    between atoms: _354  and  _357
REMARK  144  A    between atoms: _357  and  _358
REMARK  145  A    between atoms: _361  and  _363
REMARK  146  A    between atoms: _363  and  _364
REMARK  147  A    between atoms: _363  and  _366
REMARK  148  A    between atoms: _366  and  _367
REMARK  149  A    between atoms: _372  and  _374
REMARK  150  A    between atoms: _374  and  _375
REMARK  151  A    between atoms: _374  and  _377
REMARK  152  A    between atoms: _377  and  _378
REMARK  153  A    between atoms: _384  and  _386
REMARK  154  A    between atoms: _386  and  _387
REMARK  155  A    between atoms: _390  and  _392
REMARK  156  A    between atoms: _392  and  _393
REMARK  157  A    between atoms: _392  and  _395
REMARK  158  A    between atoms: _395  and  _396
REMARK  159  A    between atoms: _399  and  _401
REMARK  160  A    between atoms: _401  and  _402
REMARK  161  A    between atoms: _404  and  _406
REMARK  162  A    between atoms: _406  and  _407
REMARK  163  A    between atoms: _406  and  _409
REMARK  164  A    between atoms: _409  and  _410
REMARK  165  A    between atoms: _415  and  _417
REMARK  166  A    between atoms: _417  and  _418
REMARK  167  A    between atoms: _417  and  _420
REMARK  168  A    between atoms: _420  and  _421
REMARK  169  A    between atoms: _431  and  _433
REMARK  170  A    between atoms: _433  and  _434
REMARK  171  A    between atoms: _436  and  _438
REMARK  172  A    between atoms: _438  and  _439
REMARK  173  A    between atoms: _438  and  _441
REMARK  174  A    between atoms: _443  and  _445
REMARK  175  A    between atoms: _445  and  _446
REMARK  176  A    between atoms: _448  and  _450
REMARK  177  A    between atoms: _450  and  _451
REMARK  178  A    between atoms: _454  and  _456
REMARK  179  A    between atoms: _456  and  _457
REMARK  180  A    between atoms: _456  and  _459
REMARK  181  A    between atoms: _459  and  _460
REMARK  182  A    between atoms: _466  and  _468
REMARK  183  A    between atoms: _468  and  _469
REMARK  184  A    between atoms: _471  and  _473
REMARK  185  A    between atoms: _473  and  _474
REMARK  186  A    between atoms: _476  and  _478
REMARK  187  A    between atoms: _478  and  _479
REMARK  188  A    between atoms: _482  and  _484
REMARK  189  A    between atoms: _484  and  _485
REMARK  190  A    between atoms: _484  and  _487
REMARK  191  A    between atoms: _487  and  _488
REMARK  192  A    between atoms: _488  and  _489
REMARK  193  A    between atoms: _489  and  _490
REMARK  194  A    between atoms: _490  and  _491
REMARK  195  A    between atoms: _495  and  _497
REMARK  196  A    between atoms: _497  and  _498
REMARK  197  A    between atoms: _497  and  _500
REMARK  198  A    between atoms: _500  and  _501
REMARK  199  A    between atoms: _506  and  _507
REMARK  200  A    between atoms: _509  and  _511
REMARK  201  A    between atoms: _511  and  _512
REMARK  202  A    between atoms: _511  and  _514
REMARK  203  A    between atoms: _514  and  _515
REMARK  204  A    between atoms: _521  and  _523
REMARK  205  A    between atoms: _523  and  _524
REMARK  206  A    between atoms: _523  and  _526
REMARK  207  A    between atoms: _526  and  _527
REMARK  208  A    between atoms: _530  and  _532
REMARK  209  A    between atoms: _532  and  _533
REMARK  210  A    between atoms: _532  and  _535
REMARK  211  A    between atoms: _535  and  _536
REMARK  212  A    between atoms: _542  and  _544
REMARK  213  A    between atoms: _544  and  _545
REMARK  214  A    between atoms: _547  and  _549
REMARK  215  A    between atoms: _549  and  _550
REMARK  216  A    between atoms: _549  and  _552
REMARK  217  A    between atoms: _552  and  _553
REMARK  218  A    between atoms: _556  and  _558
REMARK  219  A    between atoms: _558  and  _559
REMARK  220  A    between atoms: _558  and  _561
REMARK  221  A    between atoms: _561  and  _562
REMARK                            x       y       z     vdW  Elec       q    Type
REMARK                         _______ _______ _______ _____ _____    ______ ____
ROOT
ATOM      1  CA  THR A   3      27.905 -10.358  -2.109  0.00  0.00    +0.176 C 
ENDROOT
BRANCH   1   2
ATOM      2  C   THR A   3      28.393  -9.125  -2.867  0.00  0.00    +0.243 C 
ATOM      3  O   THR A   3      29.538  -8.721  -2.739  0.00  0.00    -0.273 OA
ATOM      4  N   PHE A   4      27.486  -8.473  -3.574  0.00  0.00    -0.297 N 
ATOM      5  H   PHE A   4      26.555  -8.909  -3.729  0.00  0.00    +0.150 HD
BRANCH   4   6
ATOM      6  CA  PHE A   4      27.757  -7.165  -4.139  0.00  0.00    +0.153 C 
BRANCH   6   7
ATOM      7  C   PHE A   4      28.965  -7.208  -5.089  0.00  0.00    +0.241 C 
ATOM      8  O   PHE A   4      29.850  -6.349  -5.025  0.00  0.00    -0.273 OA
ATOM      9  N   GLY A   5      28.977  -8.242  -5.952  0.00  0.00    -0.295 N 
ATOM     10  H   GLY A   5      28.302  -9.018  -5.797  0.00  0.00    +0.150 HD
BRANCH   9  11
ATOM     11  CA  GLY A   5      29.874  -8.336  -7.082  0.00  0.00    +0.176 C 
BRANCH  11  12
ATOM     12  C   GLY A   5      31.038  -9.268  -6.849  0.00  0.00    +0.243 C 
ATOM     13  N   ASP A   6      31.180  -9.770  -5.626  0.00  0.00    -0.297 N 
ATOM     14  H   ASP A   6      30.471  -9.537  -4.902  0.00  0.00    +0.150 HD
ATOM     15  O   GLY A   5      31.805  -9.524  -7.756  0.00  0.00    -0.273 OA
BRANCH  13  16
ATOM     16  CA  ASP A   6      32.289 -10.631  -5.267  0.00  0.00    +0.148 C 
BRANCH  16  17
ATOM     17  C   ASP A   6      31.885 -12.100  -5.514  0.00  0.00    +0.227 C 
ATOM     18  O   ASP A   6      31.285 -12.742  -4.652  0.00  0.00    -0.286 OA
ENDBRANCH  16  17
BRANCH  16  19
ATOM     19  CB  ASP A   6      32.640 -10.348  -3.783  0.00  0.00    +0.142 C 
BRANCH  19  20
ATOM     20  CG  ASP A   6      33.884 -11.085  -3.300  0.00  0.00    +0.367 C 
ATOM     21  OD2 ASP A   6      34.442 -10.696  -2.224  0.00  0.00    -0.246 OA
ATOM     22  OD1 ASP A   6      34.286 -12.060  -3.971  0.00  0.00    -0.246 OA
ENDBRANCH  19  20
ENDBRANCH  16  19
ENDBRANCH  13  16
ENDBRANCH  11  12
ENDBRANCH   9  11
ENDBRANCH   6   7
BRANCH   6  23
ATOM     23  CB  PHE A   4      27.962  -6.153  -3.021  0.00  0.00    +0.055 C 
BRANCH  23  24
ATOM     24  CG  PHE A   4      27.654  -4.742  -3.426  0.00  0.00    -0.020 A 
ATOM     25  CD2 PHE A   4      28.651  -3.798  -3.560  0.00  0.00    -0.004 A 
ATOM     26  CE2 PHE A   4      28.327  -2.481  -3.904  0.00  0.00    -0.000 A 
ATOM     27  CZ  PHE A   4      27.012  -2.122  -4.139  0.00  0.00    -0.000 A 
ATOM     28  CE1 PHE A   4      26.030  -3.049  -4.030  0.00  0.00    -0.000 A 
ATOM     29  CD1 PHE A   4      26.354  -4.363  -3.694  0.00  0.00    -0.004 A 
ENDBRANCH  23  24
ENDBRANCH   6  23
ENDBRANCH   4   6
ENDBRANCH   1   2
BRANCH   1  32
ATOM     30  C   PHE A   2      25.547 -10.145  -1.476  0.00  0.00    +0.241 C 
ATOM     31  O   PHE A   2      25.833  -9.423  -0.531  0.00  0.00    -0.273 OA
ATOM     32  N   THR A   3      26.475 -10.652  -2.300  0.00  0.00    -0.295 N 
ATOM     33  H   THR A   3      26.180 -11.264  -3.088  0.00  0.00    +0.150 HD
BRANCH  30  34
ATOM     34  CA  PHE A   2      24.077 -10.562  -1.684  0.00  0.00    +0.153 C 
BRANCH  34  36
ATOM     35  C   TYR A   1      23.478 -12.575  -0.394  0.00  0.00    +0.239 C 
ATOM     36  N   PHE A   2      23.545 -11.249  -0.501  0.00  0.00    -0.297 N 
ATOM     37  H   PHE A   2      23.203 -10.671   0.294  0.00  0.00    +0.150 HD
ATOM     38  O   TYR A   1      23.811 -13.325  -1.300  0.00  0.00    -0.274 OA
BRANCH  35  39
ATOM     39  CA  TYR A   1      22.978 -13.164   0.933  0.00  0.00    +0.149 C 
BRANCH  39  40
ATOM     40  N   TYR A   1      21.729 -13.891   0.703  0.00  0.00    -0.238 NA
ATOM     41  H   TYR A   1      21.761 -14.750   0.118  0.00  0.00    +0.142 HD
ENDBRANCH  39  40
BRANCH  39  42
ATOM     42  CB  TYR A   1      24.027 -14.117   1.545  0.00  0.00    +0.053 C 
BRANCH  42  43
ATOM     43  CG  TYR A   1      25.249 -13.386   2.073  0.00  0.00    -0.020 A 
ATOM     44  CD2 TYR A   1      25.472 -13.248   3.458  0.00  0.00    -0.001 A 
ATOM     45  CE2 TYR A   1      26.575 -12.539   3.932  0.00  0.00    +0.036 A 
ATOM     46  CZ  TYR A   1      27.452 -11.967   3.028  0.00  0.00    +0.134 A 
ATOM     47  CE1 TYR A   1      27.254 -12.101   1.662  0.00  0.00    +0.036 A 
ATOM     48  CD1 TYR A   1      26.160 -12.791   1.197  0.00  0.00    -0.001 A 
BRANCH  46  49
ATOM     49  OH  TYR A   1      28.558 -11.285   3.491  0.00  0.00    -0.506 OA
ATOM     50  HH  TYR A   1      29.078 -10.940   2.722  0.00  0.00    +0.292 HD
ENDBRANCH  46  49
ENDBRANCH  42  43
ENDBRANCH  39  42
ENDBRANCH  35  39
ENDBRANCH  34  36
BRANCH  34  51
ATOM     51  CB  PHE A   2      23.232  -9.331  -1.941  0.00  0.00    +0.055 C 
BRANCH  51  52
ATOM     52  CG  PHE A   2      21.824  -9.649  -2.268  0.00  0.00    -0.020 A 
ATOM     53  CD2 PHE A   2      20.869  -9.695  -1.287  0.00  0.00    -0.004 A 
ATOM     54  CE2 PHE A   2      19.544 -10.052  -1.606  0.00  0.00    -0.000 A 
ATOM     55  CZ  PHE A   2      19.198 -10.343  -2.934  0.00  0.00    -0.000 A 
ATOM     56  CE1 PHE A   2      20.182 -10.289  -3.927  0.00  0.00    -0.000 A 
ATOM     57  CD1 PHE A   2      21.462  -9.954  -3.600  0.00  0.00    -0.004 A 
ENDBRANCH  51  52
ENDBRANCH  34  51
ENDBRANCH  30  34
ENDBRANCH   1  32
BRANCH   1  58
ATOM     58  CB  THR A   3      28.831 -11.503  -2.448  0.00  0.00    +0.137 C 
ATOM     59  CG2 THR A   3      28.485 -12.734  -1.684  0.00  0.00    +0.034 C 
BRANCH  58  60
ATOM     60  OG1 THR A   3      28.823 -11.754  -3.867  0.00  0.00    -0.382 OA
ATOM     61  HG1 THR A   3      29.434 -12.506  -4.071  0.00  0.00    +0.210 HD
ENDBRANCH  58  60
ENDBRANCH   1  58
TORSDOF 23
REMARK  Name = ../refined-set-2016/4b1j/4b1j_pocket.pdb
REMARK  221 active torsions:
REMARK  status: ('A' for Active; 'I' for Inactive)
REMARK    1  A    between atoms: _1  and  _3
REMARK    2  A    between atoms: _3  and  _4
REMARK    3  A    between atoms: _3  and  _6
REMARK    4  A    between atoms: _6  and  _7
REMARK    5  A    between atoms: _7  and  _8
REMARK    6  A    between atoms: _11  and  _13
REMARK    7  A    between atoms: _13  and  _14
REMARK    8  A    between atoms: _16  and  _18
REMARK    9  A    between atoms: _18  and  _19
REMARK   10  A    between atoms: _18  and  _21
REMARK   11  A    between atoms: _21  and  _22
REMARK   12  A    between atoms: _25  and  _27
REMARK   13  A    between atoms: _27  and  _28
REMARK   14  A    between atoms: _27  and  _30
REMARK   15  A    between atoms: _30  and  _31
REMARK   16  A    between atoms: _34  and  _36
REMARK   17  A    between atoms: _36  and  _37
REMARK   18  A    between atoms: _36  and  _39
REMARK   19  A    between atoms: _39  and  _40
REMARK   20  A    between atoms: _40  and  _41
REMARK   21  A    between atoms: _44  and  _46
REMARK   22  A    between atoms: _46  and  _47
REMARK   23  A    between atoms: _46  and  _49
REMARK   24  A    between atoms: _49  and  _50
REMARK   25  A    between atoms: _50  and  _51
REMARK   26  A    between atoms: _54  and  _56
REMARK   27  A    between atoms: _56  and  _57
REMARK   28  A    between atoms: _56  and  _59
REMARK   29  A    between atoms: _59  and  _60
REMARK   30  A    between atoms: _65  and  _67
REMARK   31  A    between atoms: _67  and  _68
REMARK   32  A    between atoms: _67  and  _70
REMARK   33  A    between atoms: _73  and  _75
REMARK   34  A    between atoms: _75  and  _76
REMARK   35  A    between atoms: _75  and  _78
REMARK   36  A    between atoms: _78  and  _79
REMARK   37  A    between atoms: _82  and  _84
REMARK   38  A    between atoms: _84  and  _85
REMARK   39  A    between atoms: _84  and  _87
REMARK   40  A    between atoms: _87  and  _88
REMARK   41  A    between atoms: _94  and  _96
REMARK   42  A    between atoms: _96  and  _97
REMARK   43  A    between atoms: _100  and  _102
REMARK   44  A    between atoms: _102  and  _103
REMARK   45  A    between atoms: _102  and  _105
REMARK   46  A    between atoms: _105  and  _106
REMARK   47  A    between atoms: _111  and  _113
REMARK   48  A    between atoms: _113  and  _114
REMARK   49  A    between atoms: _113  and  _116
REMARK   50  A    between atoms: _116  and  _117
REMARK   51  A    between atoms: _117  and  _118
REMARK   52  A    between atoms: _118  and  _119
REMARK   53  A    between atoms: _128  and  _130
REMARK   54  A    between atoms: _130  and  _131
REMARK   55  A    between atoms: _130  and  _133
REMARK   56  A    between atoms: _133  and  _134
REMARK   57  A    between atoms: _140  and  _142
REMARK   58  A    between atoms: _142  and  _143
REMARK   59  A    between atoms: _142  and  _145
REMARK   60  A    between atoms: _148  and  _150
REMARK   61  A    between atoms: _150  and  _151
REMARK   62  A    between atoms: _153  and  _155
REMARK   63  A    between atoms: _155  and  _156
REMARK   64  A    between atoms: _158  and  _160
REMARK   65  A    between atoms: _160  and  _161
REMARK   66  A    between atoms: _163  and  _165
REMARK   67  A    between atoms: _165  and  _166
REMARK   68  A    between atoms: _165  and  _168
REMARK   69  A    between atoms: _171  and  _173
REMARK   70  A    between atoms: _173  and  _174
REMARK   71  A    between atoms: _176  and  _178
REMARK   72  A    between atoms: _178  and  _179
REMARK   73  A    between atoms: _178  and  _181
REMARK   74  A    between atoms: _181  and  _182
REMARK   75  A    between atoms: _185  and  _187
REMARK   76  A    between atoms: _187  and  _188
REMARK   77  A    between atoms: _187  and  _190
REMARK   78  A    between atoms: _193  and  _195
REMARK   79  A    between atoms: _195  and  _196
REMARK   80  A    between atoms: _195  and  _198
REMARK   81  A    between atoms: _198  and  _199
REMARK   82  A    between atoms: _199  and  _200
REMARK   83  A    between atoms: _205  and  _207
REMARK   84  A    between atoms: _207  and  _208
REMARK   85  A    between atoms: _207  and  _210
REMARK   86  A    between atoms: _210  and  _211
REMARK   87  A    between atoms: _211  and  _212
REMARK   88  A    between atoms: _215  and  _217
REMARK   89  A    between atoms: _217  and  _218
REMARK   90  A    between atoms: _217  and  _220
REMARK   91  A    between atoms: _220  and  _221
REMARK   92  A    between atoms: _221  and  _222
REMARK   93  A    between atoms: _225  and  _227
REMARK   94  A    between atoms: _227  and  _228
REMARK   95  A    between atoms: _227  and  _230
REMARK   96  A    between atoms: _230  and  _231
REMARK   97  A    between atoms: _234  and  _236
REMARK   98  A    between atoms: _236  and  _237
REMARK   99  A    between atoms: _236  and  _239
REMARK  100  A    between atoms: _239  and  _240
REMARK  101  A    between atoms: _240  and  _241
REMARK  102  A    between atoms: _241  and  _242
REMARK  103  A    between atoms: _251  and  _253
REMARK  104  A    between atoms: _253  and  _254
REMARK  105  A    between atoms: _253  and  _256
REMARK  106  A    between atoms: _256  and  _257
REMARK  107  A    between atoms: _263  and  _265
REMARK  108  A    between atoms: _265  and  _266
REMARK  109  A    between atoms: _265  and  _268
REMARK  110  A    between atoms: _268  and  _269
REMARK  111  A    between atoms: _272  and  _274
REMARK  112  A    between atoms: _274  and  _275
REMARK  113  A    between atoms: _274  and  _277
REMARK  114  A    between atoms: _277  and  _278
REMARK  115  A    between atoms: _278  and  _279
REMARK  116  A    between atoms: _279  and  _280
REMARK  117  A    between atoms: _289  and  _291
REMARK  118  A    between atoms: _291  and  _292
REMARK  119  A    between atoms: _291  and  _294
REMARK  120  A    between atoms: _294  and  _295
REMARK  121  A    between atoms: _300  and  _301
REMARK  122  A    between atoms: _303  and  _305
REMARK  123  A    between atoms: _305  and  _306
REMARK  124  A    between atoms: _308  and  _310
REMARK  125  A    between atoms: _310  and  _311
REMARK  126  A    between atoms: _310  and  _313
REMARK  127  A    between atoms: _313  and  _314
REMARK  128  A    between atoms: _319  and  _320
REMARK  129  A    between atoms: _322  and  _324
REMARK  130  A    between atoms: _324  and  _325
REMARK  131  A    between atoms: _328  and  _330
REMARK  132  A    between atoms: _330  and  _331
REMARK  133  A    between atoms: _330  and  _333
REMARK  134  A    between atoms: _333  and  _334
REMARK  135  A    between atoms: _337  and  _339
REMARK  136  A    between atoms: _339  and  _340
REMARK  137  A    between atoms: _339  and  _342
REMARK  138  A    between atoms: _342  and  _343
REMARK  139  A    between atoms: _346  and  _348
REMARK  140  A    between atoms: _348  and  _349
REMARK  141  A    between atoms: _352  and  _354
REMARK  142  A    between atoms: _354  and  _355
REMARK  143  A    between atoms: _354  and  _357
REMARK  144  A    between atoms: _357  and  _358
REMARK  145  A    between atoms: _361  and  _363
REMARK  146  A    between atoms: _363  and  _364
REMARK  147  A    between atoms: _363  and  _366
REMARK  148  A    between atoms: _366  and  _367
REMARK  149  A    between atoms: _372  and  _374
REMARK  150  A    between atoms: _374  and  _375
REMARK  151  A    between atoms: _374  and  _377
REMARK  152  A    between atoms: _377  and  _378
REMARK  153  A    between atoms: _384  and  _386
REMARK  154  A    between atoms: _386  and  _387
REMARK  155  A    between atoms: _390  and  _392
REMARK  156  A    between atoms: _392  and  _393
REMARK  157  A    between atoms: _392  and  _395
REMARK  158  A    between atoms: _395  and  _396
REMARK  159  A    between atoms: _399  and  _401
REMARK  160  A    between atoms: _401  and  _402
REMARK  161  A    between atoms: _404  and  _406
REMARK  162  A    between atoms: _406  and  _407
REMARK  163  A    between atoms: _406  and  _409
REMARK  164  A    between atoms: _409  and  _410
REMARK  165  A    between atoms: _415  and  _417
REMARK  166  A    between atoms: _417  and  _418
REMARK  167  A    between atoms: _417  and  _420
REMARK  168  A    between atoms: _420  and  _421
REMARK  169  A    between atoms: _431  and  _433
REMARK  170  A    between atoms: _433  and  _434
REMARK  171  A    between atoms: _436  and  _438
REMARK  172  A    between atoms: _438  and  _439
REMARK  173  A    between atoms: _438  and  _441
REMARK  174  A    between atoms: _443  and  _445
REMARK  175  A    between atoms: _445  and  _446
REMARK  176  A    between atoms: _448  and  _450
REMARK  177  A    between atoms: _450  and  _451
REMARK  178  A    between atoms: _454  and  _456
REMARK  179  A    between atoms: _456  and  _457
REMARK  180  A    between atoms: _456  and  _459
REMARK  181  A    between atoms: _459  and  _460
REMARK  182  A    between atoms: _466  and  _468
REMARK  183  A    between atoms: _468  and  _469
REMARK  184  A    between atoms: _471  and  _473
REMARK  185  A    between atoms: _473  and  _474
REMARK  186  A    between atoms: _476  and  _478
REMARK  187  A    between atoms: _478  and  _479
REMARK  188  A    between atoms: _482  and  _484
REMARK  189  A    between atoms: _484  and  _485
REMARK  190  A    between atoms: _484  and  _487
REMARK  191  A    between atoms: _487  and  _488
REMARK  192  A    between atoms: _488  and  _489
REMARK  193  A    between atoms: _489  and  _490
REMARK  194  A    between atoms: _490  and  _491
REMARK  195  A    between atoms: _495  and  _497
REMARK  196  A    between atoms: _497  and  _498
REMARK  197  A    between atoms: _497  and  _500
REMARK  198  A    between atoms: _500  and  _501
REMARK  199  A    between atoms: _506  and  _507
REMARK  200  A    between atoms: _509  and  _511
REMARK  201  A    between atoms: _511  and  _512
REMARK  202  A    between atoms: _511  and  _514
REMARK  203  A    between atoms: _514  and  _515
REMARK  204  A    between atoms: _521  and  _523
REMARK  205  A    between atoms: _523  and  _524
REMARK  206  A    between atoms: _523  and  _526
REMARK  207  A    between atoms: _526  and  _527
REMARK  208  A    between atoms: _530  and  _532
REMARK  209  A    between atoms: _532  and  _533
REMARK  210  A    between atoms: _532  and  _535
REMARK  211  A    between atoms: _535  and  _536
REMARK  212  A    between atoms: _542  and  _544
REMARK  213  A    between atoms: _544  and  _545
REMARK  214  A    between atoms: _547  and  _549
REMARK  215  A    between atoms: _549  and  _550
REMARK  216  A    between atoms: _549  and  _552
REMARK  217  A    between atoms: _552  and  _553
REMARK  218  A    between atoms: _556  and  _558
REMARK  219  A    between atoms: _558  and  _559
REMARK  220  A    between atoms: _558  and  _561
REMARK  221  A    between atoms: _561  and  _562
REMARK                            x       y       z     vdW  Elec       q    Type
REMARK                         _______ _______ _______ _____ _____    ______ ____
ROOT
ATOM      1  CA  LEU A   1      32.997 -14.887  -1.742  0.00  0.00    +0.133 C 
ENDROOT
BRANCH   1   2
ATOM      2  N   LEU A   1      33.616 -14.837  -3.045  0.00  0.00    -0.239 NA
ATOM      3  H   LEU A   1      33.735 -13.919  -3.519  0.00  0.00    +0.142 HD
ENDBRANCH   1   2
BRANCH   1   4
ATOM      4  C   LEU A   1      31.683 -15.694  -1.785  0.00  0.00    +0.224 C 
ATOM      5  O   LEU A   1      31.369 -16.421  -0.850  0.00  0.00    -0.287 OA
ENDBRANCH   1   4
BRANCH   1   6
ATOM      6  CB  LEU A   1      32.725 -13.469  -1.228  0.00  0.00    +0.025 C 
BRANCH   6   7
ATOM      7  CG  LEU A   1      32.024 -13.405   0.144  0.00  0.00    +0.002 C 
ATOM      8  CD2 LEU A   1      33.005 -13.945   1.176  0.00  0.00    +0.000 C 
ATOM      9  CD1 LEU A   1      31.590 -11.977   0.468  0.00  0.00    +0.000 C 
ENDBRANCH   6   7
ENDBRANCH   1   6
TORSDOF 4
REMARK  Name = ../refined-set-2016/4b1j/4b1j_pocket.pdb
REMARK  221 active torsions:
REMARK  status: ('A' for Active; 'I' for Inactive)
REMARK    1  A    between atoms: _1  and  _3
REMARK    2  A    between atoms: _3  and  _4
REMARK    3  A    between atoms: _3  and  _6
REMARK    4  A    between atoms: _6  and  _7
REMARK    5  A    between atoms: _7  and  _8
REMARK    6  A    between atoms: _11  and  _13
REMARK    7  A    between atoms: _13  and  _14
REMARK    8  A    between atoms: _16  and  _18
REMARK    9  A    between atoms: _18  and  _19
REMARK   10  A    between atoms: _18  and  _21
REMARK   11  A    between atoms: _21  and  _22
REMARK   12  A    between atoms: _25  and  _27
REMARK   13  A    between atoms: _27  and  _28
REMARK   14  A    between atoms: _27  and  _30
REMARK   15  A    between atoms: _30  and  _31
REMARK   16  A    between atoms: _34  and  _36
REMARK   17  A    between atoms: _36  and  _37
REMARK   18  A    between atoms: _36  and  _39
REMARK   19  A    between atoms: _39  and  _40
REMARK   20  A    between atoms: _40  and  _41
REMARK   21  A    between atoms: _44  and  _46
REMARK   22  A    between atoms: _46  and  _47
REMARK   23  A    between atoms: _46  and  _49
REMARK   24  A    between atoms: _49  and  _50
REMARK   25  A    between atoms: _50  and  _51
REMARK   26  A    between atoms: _54  and  _56
REMARK   27  A    between atoms: _56  and  _57
REMARK   28  A    between atoms: _56  and  _59
REMARK   29  A    between atoms: _59  and  _60
REMARK   30  A    between atoms: _65  and  _67
REMARK   31  A    between atoms: _67  and  _68
REMARK   32  A    between atoms: _67  and  _70
REMARK   33  A    between atoms: _73  and  _75
REMARK   34  A    between atoms: _75  and  _76
REMARK   35  A    between atoms: _75  and  _78
REMARK   36  A    between atoms: _78  and  _79
REMARK   37  A    between atoms: _82  and  _84
REMARK   38  A    between atoms: _84  and  _85
REMARK   39  A    between atoms: _84  and  _87
REMARK   40  A    between atoms: _87  and  _88
REMARK   41  A    between atoms: _94  and  _96
REMARK   42  A    between atoms: _96  and  _97
REMARK   43  A    between atoms: _100  and  _102
REMARK   44  A    between atoms: _102  and  _103
REMARK   45  A    between atoms: _102  and  _105
REMARK   46  A    between atoms: _105  and  _106
REMARK   47  A    between atoms: _111  and  _113
REMARK   48  A    between atoms: _113  and  _114
REMARK   49  A    between atoms: _113  and  _116
REMARK   50  A    between atoms: _116  and  _117
REMARK   51  A    between atoms: _117  and  _118
REMARK   52  A    between atoms: _118  and  _119
REMARK   53  A    between atoms: _128  and  _130
REMARK   54  A    between atoms: _130  and  _131
REMARK   55  A    between atoms: _130  and  _133
REMARK   56  A    between atoms: _133  and  _134
REMARK   57  A    between atoms: _140  and  _142
REMARK   58  A    between atoms: _142  and  _143
REMARK   59  A    between atoms: _142  and  _145
REMARK   60  A    between atoms: _148  and  _150
REMARK   61  A    between atoms: _150  and  _151
REMARK   62  A    between atoms: _153  and  _155
REMARK   63  A    between atoms: _155  and  _156
REMARK   64  A    between atoms: _158  and  _160
REMARK   65  A    between atoms: _160  and  _161
REMARK   66  A    between atoms: _163  and  _165
REMARK   67  A    between atoms: _165  and  _166
REMARK   68  A    between atoms: _165  and  _168
REMARK   69  A    between atoms: _171  and  _173
REMARK   70  A    between atoms: _173  and  _174
REMARK   71  A    between atoms: _176  and  _178
REMARK   72  A    between atoms: _178  and  _179
REMARK   73  A    between atoms: _178  and  _181
REMARK   74  A    between atoms: _181  and  _182
REMARK   75  A    between atoms: _185  and  _187
REMARK   76  A    between atoms: _187  and  _188
REMARK   77  A    between atoms: _187  and  _190
REMARK   78  A    between atoms: _193  and  _195
REMARK   79  A    between atoms: _195  and  _196
REMARK   80  A    between atoms: _195  and  _198
REMARK   81  A    between atoms: _198  and  _199
REMARK   82  A    between atoms: _199  and  _200
REMARK   83  A    between atoms: _205  and  _207
REMARK   84  A    between atoms: _207  and  _208
REMARK   85  A    between atoms: _207  and  _210
REMARK   86  A    between atoms: _210  and  _211
REMARK   87  A    between atoms: _211  and  _212
REMARK   88  A    between atoms: _215  and  _217
REMARK   89  A    between atoms: _217  and  _218
REMARK   90  A    between atoms: _217  and  _220
REMARK   91  A    between atoms: _220  and  _221
REMARK   92  A    between atoms: _221  and  _222
REMARK   93  A    between atoms: _225  and  _227
REMARK   94  A    between atoms: _227  and  _228
REMARK   95  A    between atoms: _227  and  _230
REMARK   96  A    between atoms: _230  and  _231
REMARK   97  A    between atoms: _234  and  _236
REMARK   98  A    between atoms: _236  and  _237
REMARK   99  A    between atoms: _236  and  _239
REMARK  100  A    between atoms: _239  and  _240
REMARK  101  A    between atoms: _240  and  _241
REMARK  102  A    between atoms: _241  and  _242
REMARK  103  A    between atoms: _251  and  _253
REMARK  104  A    between atoms: _253  and  _254
REMARK  105  A    between atoms: _253  and  _256
REMARK  106  A    between atoms: _256  and  _257
REMARK  107  A    between atoms: _263  and  _265
REMARK  108  A    between atoms: _265  and  _266
REMARK  109  A    between atoms: _265  and  _268
REMARK  110  A    between atoms: _268  and  _269
REMARK  111  A    between atoms: _272  and  _274
REMARK  112  A    between atoms: _274  and  _275
REMARK  113  A    between atoms: _274  and  _277
REMARK  114  A    between atoms: _277  and  _278
REMARK  115  A    between atoms: _278  and  _279
REMARK  116  A    between atoms: _279  and  _280
REMARK  117  A    between atoms: _289  and  _291
REMARK  118  A    between atoms: _291  and  _292
REMARK  119  A    between atoms: _291  and  _294
REMARK  120  A    between atoms: _294  and  _295
REMARK  121  A    between atoms: _300  and  _301
REMARK  122  A    between atoms: _303  and  _305
REMARK  123  A    between atoms: _305  and  _306
REMARK  124  A    between atoms: _308  and  _310
REMARK  125  A    between atoms: _310  and  _311
REMARK  126  A    between atoms: _310  and  _313
REMARK  127  A    between atoms: _313  and  _314
REMARK  128  A    between atoms: _319  and  _320
REMARK  129  A    between atoms: _322  and  _324
REMARK  130  A    between atoms: _324  and  _325
REMARK  131  A    between atoms: _328  and  _330
REMARK  132  A    between atoms: _330  and  _331
REMARK  133  A    between atoms: _330  and  _333
REMARK  134  A    between atoms: _333  and  _334
REMARK  135  A    between atoms: _337  and  _339
REMARK  136  A    between atoms: _339  and  _340
REMARK  137  A    between atoms: _339  and  _342
REMARK  138  A    between atoms: _342  and  _343
REMARK  139  A    between atoms: _346  and  _348
REMARK  140  A    between atoms: _348  and  _349
REMARK  141  A    between atoms: _352  and  _354
REMARK  142  A    between atoms: _354  and  _355
REMARK  143  A    between atoms: _354  and  _357
REMARK  144  A    between atoms: _357  and  _358
REMARK  145  A    between atoms: _361  and  _363
REMARK  146  A    between atoms: _363  and  _364
REMARK  147  A    between atoms: _363  and  _366
REMARK  148  A    between atoms: _366  and  _367
REMARK  149  A    between atoms: _372  and  _374
REMARK  150  A    between atoms: _374  and  _375
REMARK  151  A    between atoms: _374  and  _377
REMARK  152  A    between atoms: _377  and  _378
REMARK  153  A    between atoms: _384  and  _386
REMARK  154  A    between atoms: _386  and  _387
REMARK  155  A    between atoms: _390  and  _392
REMARK  156  A    between atoms: _392  and  _393
REMARK  157  A    between atoms: _392  and  _395
REMARK  158  A    between atoms: _395  and  _396
REMARK  159  A    between atoms: _399  and  _401
REMARK  160  A    between atoms: _401  and  _402
REMARK  161  A    between atoms: _404  and  _406
REMARK  162  A    between atoms: _406  and  _407
REMARK  163  A    between atoms: _406  and  _409
REMARK  164  A    between atoms: _409  and  _410
REMARK  165  A    between atoms: _415  and  _417
REMARK  166  A    between atoms: _417  and  _418
REMARK  167  A    between atoms: _417  and  _420
REMARK  168  A    between atoms: _420  and  _421
REMARK  169  A    between atoms: _431  and  _433
REMARK  170  A    between atoms: _433  and  _434
REMARK  171  A    between atoms: _436  and  _438
REMARK  172  A    between atoms: _438  and  _439
REMARK  173  A    between atoms: _438  and  _441
REMARK  174  A    between atoms: _443  and  _445
REMARK  175  A    between atoms: _445  and  _446
REMARK  176  A    between atoms: _448  and  _450
REMARK  177  A    between atoms: _450  and  _451
REMARK  178  A    between atoms: _454  and  _456
REMARK  179  A    between atoms: _456  and  _457
REMARK  180  A    between atoms: _456  and  _459
REMARK  181  A    between atoms: _459  and  _460
REMARK  182  A    between atoms: _466  and  _468
REMARK  183  A    between atoms: _468  and  _469
REMARK  184  A    between atoms: _471  and  _473
REMARK  185  A    between atoms: _473  and  _474
REMARK  186  A    between atoms: _476  and  _478
REMARK  187  A    between atoms: _478  and  _479
REMARK  188  A    between atoms: _482  and  _484
REMARK  189  A    between atoms: _484  and  _485
REMARK  190  A    between atoms: _484  and  _487
REMARK  191  A    between atoms: _487  and  _488
REMARK  192  A    between atoms: _488  and  _489
REMARK  193  A    between atoms: _489  and  _490
REMARK  194  A    between atoms: _490  and  _491
REMARK  195  A    between atoms: _495  and  _497
REMARK  196  A    between atoms: _497  and  _498
REMARK  197  A    between atoms: _497  and  _500
REMARK  198  A    between atoms: _500  and  _501
REMARK  199  A    between atoms: _506  and  _507
REMARK  200  A    between atoms: _509  and  _511
REMARK  201  A    between atoms: _511  and  _512
REMARK  202  A    between atoms: _511  and  _514
REMARK  203  A    between atoms: _514  and  _515
REMARK  204  A    between atoms: _521  and  _523
REMARK  205  A    between atoms: _523  and  _524
REMARK  206  A    between atoms: _523  and  _526
REMARK  207  A    between atoms: _526  and  _527
REMARK  208  A    between atoms: _530  and  _532
REMARK  209  A    between atoms: _532  and  _533
REMARK  210  A    between atoms: _532  and  _535
REMARK  211  A    between atoms: _535  and  _536
REMARK  212  A    between atoms: _542  and  _544
REMARK  213  A    between atoms: _544  and  _545
REMARK  214  A    between atoms: _547  and  _549
REMARK  215  A    between atoms: _549  and  _550
REMARK  216  A    between atoms: _549  and  _552
REMARK  217  A    between atoms: _552  and  _553
REMARK  218  A    between atoms: _556  and  _558
REMARK  219  A    between atoms: _558  and  _559
REMARK  220  A    between atoms: _558  and  _561
REMARK  221  A    between atoms: _561  and  _562
REMARK                            x       y       z     vdW  Elec       q    Type
REMARK                         _______ _______ _______ _____ _____    ______ ____
ROOT
ATOM      1  O   HOH     1      32.232   4.902   9.083  0.00  0.00    +0.000 OA
ENDROOT
TORSDOF 0
REMARK  Name = ../refined-set-2016/4b1j/4b1j_pocket.pdb
REMARK  221 active torsions:
REMARK  status: ('A' for Active; 'I' for Inactive)
REMARK    1  A    between atoms: _1  and  _3
REMARK    2  A    between atoms: _3  and  _4
REMARK    3  A    between atoms: _3  and  _6
REMARK    4  A    between atoms: _6  and  _7
REMARK    5  A    between atoms: _7  and  _8
REMARK    6  A    between atoms: _11  and  _13
REMARK    7  A    between atoms: _13  and  _14
REMARK    8  A    between atoms: _16  and  _18
REMARK    9  A    between atoms: _18  and  _19
REMARK   10  A    between atoms: _18  and  _21
REMARK   11  A    between atoms: _21  and  _22
REMARK   12  A    between atoms: _25  and  _27
REMARK   13  A    between atoms: _27  and  _28
REMARK   14  A    between atoms: _27  and  _30
REMARK   15  A    between atoms: _30  and  _31
REMARK   16  A    between atoms: _34  and  _36
REMARK   17  A    between atoms: _36  and  _37
REMARK   18  A    between atoms: _36  and  _39
REMARK   19  A    between atoms: _39  and  _40
REMARK   20  A    between atoms: _40  and  _41
REMARK   21  A    between atoms: _44  and  _46
REMARK   22  A    between atoms: _46  and  _47
REMARK   23  A    between atoms: _46  and  _49
REMARK   24  A    between atoms: _49  and  _50
REMARK   25  A    between atoms: _50  and  _51
REMARK   26  A    between atoms: _54  and  _56
REMARK   27  A    between atoms: _56  and  _57
REMARK   28  A    between atoms: _56  and  _59
REMARK   29  A    between atoms: _59  and  _60
REMARK   30  A    between atoms: _65  and  _67
REMARK   31  A    between atoms: _67  and  _68
REMARK   32  A    between atoms: _67  and  _70
REMARK   33  A    between atoms: _73  and  _75
REMARK   34  A    between atoms: _75  and  _76
REMARK   35  A    between atoms: _75  and  _78
REMARK   36  A    between atoms: _78  and  _79
REMARK   37  A    between atoms: _82  and  _84
REMARK   38  A    between atoms: _84  and  _85
REMARK   39  A    between atoms: _84  and  _87
REMARK   40  A    between atoms: _87  and  _88
REMARK   41  A    between atoms: _94  and  _96
REMARK   42  A    between atoms: _96  and  _97
REMARK   43  A    between atoms: _100  and  _102
REMARK   44  A    between atoms: _102  and  _103
REMARK   45  A    between atoms: _102  and  _105
REMARK   46  A    between atoms: _105  and  _106
REMARK   47  A    between atoms: _111  and  _113
REMARK   48  A    between atoms: _113  and  _114
REMARK   49  A    between atoms: _113  and  _116
REMARK   50  A    between atoms: _116  and  _117
REMARK   51  A    between atoms: _117  and  _118
REMARK   52  A    between atoms: _118  and  _119
REMARK   53  A    between atoms: _128  and  _130
REMARK   54  A    between atoms: _130  and  _131
REMARK   55  A    between atoms: _130  and  _133
REMARK   56  A    between atoms: _133  and  _134
REMARK   57  A    between atoms: _140  and  _142
REMARK   58  A    between atoms: _142  and  _143
REMARK   59  A    between atoms: _142  and  _145
REMARK   60  A    between atoms: _148  and  _150
REMARK   61  A    between atoms: _150  and  _151
REMARK   62  A    between atoms: _153  and  _155
REMARK   63  A    between atoms: _155  and  _156
REMARK   64  A    between atoms: _158  and  _160
REMARK   65  A    between atoms: _160  and  _161
REMARK   66  A    between atoms: _163  and  _165
REMARK   67  A    between atoms: _165  and  _166
REMARK   68  A    between atoms: _165  and  _168
REMARK   69  A    between atoms: _171  and  _173
REMARK   70  A    between atoms: _173  and  _174
REMARK   71  A    between atoms: _176  and  _178
REMARK   72  A    between atoms: _178  and  _179
REMARK   73  A    between atoms: _178  and  _181
REMARK   74  A    between atoms: _181  and  _182
REMARK   75  A    between atoms: _185  and  _187
REMARK   76  A    between atoms: _187  and  _188
REMARK   77  A    between atoms: _187  and  _190
REMARK   78  A    between atoms: _193  and  _195
REMARK   79  A    between atoms: _195  and  _196
REMARK   80  A    between atoms: _195  and  _198
REMARK   81  A    between atoms: _198  and  _199
REMARK   82  A    between atoms: _199  and  _200
REMARK   83  A    between atoms: _205  and  _207
REMARK   84  A    between atoms: _207  and  _208
REMARK   85  A    between atoms: _207  and  _210
REMARK   86  A    between atoms: _210  and  _211
REMARK   87  A    between atoms: _211  and  _212
REMARK   88  A    between atoms: _215  and  _217
REMARK   89  A    between atoms: _217  and  _218
REMARK   90  A    between atoms: _217  and  _220
REMARK   91  A    between atoms: _220  and  _221
REMARK   92  A    between atoms: _221  and  _222
REMARK   93  A    between atoms: _225  and  _227
REMARK   94  A    between atoms: _227  and  _228
REMARK   95  A    between atoms: _227  and  _230
REMARK   96  A    between atoms: _230  and  _231
REMARK   97  A    between atoms: _234  and  _236
REMARK   98  A    between atoms: _236  and  _237
REMARK   99  A    between atoms: _236  and  _239
REMARK  100  A    between atoms: _239  and  _240
REMARK  101  A    between atoms: _240  and  _241
REMARK  102  A    between atoms: _241  and  _242
REMARK  103  A    between atoms: _251  and  _253
REMARK  104  A    between atoms: _253  and  _254
REMARK  105  A    between atoms: _253  and  _256
REMARK  106  A    between atoms: _256  and  _257
REMARK  107  A    between atoms: _263  and  _265
REMARK  108  A    between atoms: _265  and  _266
REMARK  109  A    between atoms: _265  and  _268
REMARK  110  A    between atoms: _268  and  _269
REMARK  111  A    between atoms: _272  and  _274
REMARK  112  A    between atoms: _274  and  _275
REMARK  113  A    between atoms: _274  and  _277
REMARK  114  A    between atoms: _277  and  _278
REMARK  115  A    between atoms: _278  and  _279
REMARK  116  A    between atoms: _279  and  _280
REMARK  117  A    between atoms: _289  and  _291
REMARK  118  A    between atoms: _291  and  _292
REMARK  119  A    between atoms: _291  and  _294
REMARK  120  A    between atoms: _294  and  _295
REMARK  121  A    between atoms: _300  and  _301
REMARK  122  A    between atoms: _303  and  _305
REMARK  123  A    between atoms: _305  and  _306
REMARK  124  A    between atoms: _308  and  _310
REMARK  125  A    between atoms: _310  and  _311
REMARK  126  A    between atoms: _310  and  _313
REMARK  127  A    between atoms: _313  and  _314
REMARK  128  A    between atoms: _319  and  _320
REMARK  129  A    between atoms: _322  and  _324
REMARK  130  A    between atoms: _324  and  _325
REMARK  131  A    between atoms: _328  and  _330
REMARK  132  A    between atoms: _330  and  _331
REMARK  133  A    between atoms: _330  and  _333
REMARK  134  A    between atoms: _333  and  _334
REMARK  135  A    between atoms: _337  and  _339
REMARK  136  A    between atoms: _339  and  _340
REMARK  137  A    between atoms: _339  and  _342
REMARK  138  A    between atoms: _342  and  _343
REMARK  139  A    between atoms: _346  and  _348
REMARK  140  A    between atoms: _348  and  _349
REMARK  141  A    between atoms: _352  and  _354
REMARK  142  A    between atoms: _354  and  _355
REMARK  143  A    between atoms: _354  and  _357
REMARK  144  A    between atoms: _357  and  _358
REMARK  145  A    between atoms: _361  and  _363
REMARK  146  A    between atoms: _363  and  _364
REMARK  147  A    between atoms: _363  and  _366
REMARK  148  A    between atoms: _366  and  _367
REMARK  149  A    between atoms: _372  and  _374
REMARK  150  A    between atoms: _374  and  _375
REMARK  151  A    between atoms: _374  and  _377
REMARK  152  A    between atoms: _377  and  _378
REMARK  153  A    between atoms: _384  and  _386
REMARK  154  A    between atoms: _386  and  _387
REMARK  155  A    between atoms: _390  and  _392
REMARK  156  A    between atoms: _392  and  _393
REMARK  157  A    between atoms: _392  and  _395
REMARK  158  A    between atoms: _395  and  _396
REMARK  159  A    between atoms: _399  and  _401
REMARK  160  A    between atoms: _401  and  _402
REMARK  161  A    between atoms: _404  and  _406
REMARK  162  A    between atoms: _406  and  _407
REMARK  163  A    between atoms: _406  and  _409
REMARK  164  A    between atoms: _409  and  _410
REMARK  165  A    between atoms: _415  and  _417
REMARK  166  A    between atoms: _417  and  _418
REMARK  167  A    between atoms: _417  and  _420
REMARK  168  A    between atoms: _420  and  _421
REMARK  169  A    between atoms: _431  and  _433
REMARK  170  A    between atoms: _433  and  _434
REMARK  171  A    between atoms: _436  and  _438
REMARK  172  A    between atoms: _438  and  _439
REMARK  173  A    between atoms: _438  and  _441
REMARK  174  A    between atoms: _443  and  _445
REMARK  175  A    between atoms: _445  and  _446
REMARK  176  A    between atoms: _448  and  _450
REMARK  177  A    between atoms: _450  and  _451
REMARK  178  A    between atoms: _454  and  _456
REMARK  179  A    between atoms: _456  and  _457
REMARK  180  A    between atoms: _456  and  _459
REMARK  181  A    between atoms: _459  and  _460
REMARK  182  A    between atoms: _466  and  _468
REMARK  183  A    between atoms: _468  and  _469
REMARK  184  A    between atoms: _471  and  _473
REMARK  185  A    between atoms: _473  and  _474
REMARK  186  A    between atoms: _476  and  _478
REMARK  187  A    between atoms: _478  and  _479
REMARK  188  A    between atoms: _482  and  _484
REMARK  189  A    between atoms: _484  and  _485
REMARK  190  A    between atoms: _484  and  _487
REMARK  191  A    between atoms: _487  and  _488
REMARK  192  A    between atoms: _488  and  _489
REMARK  193  A    between atoms: _489  and  _490
REMARK  194  A    between atoms: _490  and  _491
REMARK  195  A    between atoms: _495  and  _497
REMARK  196  A    between atoms: _497  and  _498
REMARK  197  A    between atoms: _497  and  _500
REMARK  198  A    between atoms: _500  and  _501
REMARK  199  A    between atoms: _506  and  _507
REMARK  200  A    between atoms: _509  and  _511
REMARK  201  A    between atoms: _511  and  _512
REMARK  202  A    between atoms: _511  and  _514
REMARK  203  A    between atoms: _514  and  _515
REMARK  204  A    between atoms: _521  and  _523
REMARK  205  A    between atoms: _523  and  _524
REMARK  206  A    between atoms: _523  and  _526
REMARK  207  A    between atoms: _526  and  _527
REMARK  208  A    between atoms: _530  and  _532
REMARK  209  A    between atoms: _532  and  _533
REMARK  210  A    between atoms: _532  and  _535
REMARK  211  A    between atoms: _535  and  _536
REMARK  212  A    between atoms: _542  and  _544
REMARK  213  A    between atoms: _544  and  _545
REMARK  214  A    between atoms: _547  and  _549
REMARK  215  A    between atoms: _549  and  _550
REMARK  216  A    between atoms: _549  and  _552
REMARK  217  A    between atoms: _552  and  _553
REMARK  218  A    between atoms: _556  and  _558
REMARK  219  A    between atoms: _558  and  _559
REMARK  220  A    between atoms: _558  and  _561
REMARK  221  A    between atoms: _561  and  _562
REMARK                            x       y       z     vdW  Elec       q    Type
REMARK                         _______ _______ _______ _____ _____    ______ ____
ROOT
ATOM      1  O   HOH     1      27.310  -4.930  -7.900  0.00  0.00    +0.000 OA
ENDROOT
TORSDOF 0
REMARK  Name = ../refined-set-2016/4b1j/4b1j_pocket.pdb
REMARK  221 active torsions:
REMARK  status: ('A' for Active; 'I' for Inactive)
REMARK    1  A    between atoms: _1  and  _3
REMARK    2  A    between atoms: _3  and  _4
REMARK    3  A    between atoms: _3  and  _6
REMARK    4  A    between atoms: _6  and  _7
REMARK    5  A    between atoms: _7  and  _8
REMARK    6  A    between atoms: _11  and  _13
REMARK    7  A    between atoms: _13  and  _14
REMARK    8  A    between atoms: _16  and  _18
REMARK    9  A    between atoms: _18  and  _19
REMARK   10  A    between atoms: _18  and  _21
REMARK   11  A    between atoms: _21  and  _22
REMARK   12  A    between atoms: _25  and  _27
REMARK   13  A    between atoms: _27  and  _28
REMARK   14  A    between atoms: _27  and  _30
REMARK   15  A    between atoms: _30  and  _31
REMARK   16  A    between atoms: _34  and  _36
REMARK   17  A    between atoms: _36  and  _37
REMARK   18  A    between atoms: _36  and  _39
REMARK   19  A    between atoms: _39  and  _40
REMARK   20  A    between atoms: _40  and  _41
REMARK   21  A    between atoms: _44  and  _46
REMARK   22  A    between atoms: _46  and  _47
REMARK   23  A    between atoms: _46  and  _49
REMARK   24  A    between atoms: _49  and  _50
REMARK   25  A    between atoms: _50  and  _51
REMARK   26  A    between atoms: _54  and  _56
REMARK   27  A    between atoms: _56  and  _57
REMARK   28  A    between atoms: _56  and  _59
REMARK   29  A    between atoms: _59  and  _60
REMARK   30  A    between atoms: _65  and  _67
REMARK   31  A    between atoms: _67  and  _68
REMARK   32  A    between atoms: _67  and  _70
REMARK   33  A    between atoms: _73  and  _75
REMARK   34  A    between atoms: _75  and  _76
REMARK   35  A    between atoms: _75  and  _78
REMARK   36  A    between atoms: _78  and  _79
REMARK   37  A    between atoms: _82  and  _84
REMARK   38  A    between atoms: _84  and  _85
REMARK   39  A    between atoms: _84  and  _87
REMARK   40  A    between atoms: _87  and  _88
REMARK   41  A    between atoms: _94  and  _96
REMARK   42  A    between atoms: _96  and  _97
REMARK   43  A    between atoms: _100  and  _102
REMARK   44  A    between atoms: _102  and  _103
REMARK   45  A    between atoms: _102  and  _105
REMARK   46  A    between atoms: _105  and  _106
REMARK   47  A    between atoms: _111  and  _113
REMARK   48  A    between atoms: _113  and  _114
REMARK   49  A    between atoms: _113  and  _116
REMARK   50  A    between atoms: _116  and  _117
REMARK   51  A    between atoms: _117  and  _118
REMARK   52  A    between atoms: _118  and  _119
REMARK   53  A    between atoms: _128  and  _130
REMARK   54  A    between atoms: _130  and  _131
REMARK   55  A    between atoms: _130  and  _133
REMARK   56  A    between atoms: _133  and  _134
REMARK   57  A    between atoms: _140  and  _142
REMARK   58  A    between atoms: _142  and  _143
REMARK   59  A    between atoms: _142  and  _145
REMARK   60  A    between atoms: _148  and  _150
REMARK   61  A    between atoms: _150  and  _151
REMARK   62  A    between atoms: _153  and  _155
REMARK   63  A    between atoms: _155  and  _156
REMARK   64  A    between atoms: _158  and  _160
REMARK   65  A    between atoms: _160  and  _161
REMARK   66  A    between atoms: _163  and  _165
REMARK   67  A    between atoms: _165  and  _166
REMARK   68  A    between atoms: _165  and  _168
REMARK   69  A    between atoms: _171  and  _173
REMARK   70  A    between atoms: _173  and  _174
REMARK   71  A    between atoms: _176  and  _178
REMARK   72  A    between atoms: _178  and  _179
REMARK   73  A    between atoms: _178  and  _181
REMARK   74  A    between atoms: _181  and  _182
REMARK   75  A    between atoms: _185  and  _187
REMARK   76  A    between atoms: _187  and  _188
REMARK   77  A    between atoms: _187  and  _190
REMARK   78  A    between atoms: _193  and  _195
REMARK   79  A    between atoms: _195  and  _196
REMARK   80  A    between atoms: _195  and  _198
REMARK   81  A    between atoms: _198  and  _199
REMARK   82  A    between atoms: _199  and  _200
REMARK   83  A    between atoms: _205  and  _207
REMARK   84  A    between atoms: _207  and  _208
REMARK   85  A    between atoms: _207  and  _210
REMARK   86  A    between atoms: _210  and  _211
REMARK   87  A    between atoms: _211  and  _212
REMARK   88  A    between atoms: _215  and  _217
REMARK   89  A    between atoms: _217  and  _218
REMARK   90  A    between atoms: _217  and  _220
REMARK   91  A    between atoms: _220  and  _221
REMARK   92  A    between atoms: _221  and  _222
REMARK   93  A    between atoms: _225  and  _227
REMARK   94  A    between atoms: _227  and  _228
REMARK   95  A    between atoms: _227  and  _230
REMARK   96  A    between atoms: _230  and  _231
REMARK   97  A    between atoms: _234  and  _236
REMARK   98  A    between atoms: _236  and  _237
REMARK   99  A    between atoms: _236  and  _239
REMARK  100  A    between atoms: _239  and  _240
REMARK  101  A    between atoms: _240  and  _241
REMARK  102  A    between atoms: _241  and  _242
REMARK  103  A    between atoms: _251  and  _253
REMARK  104  A    between atoms: _253  and  _254
REMARK  105  A    between atoms: _253  and  _256
REMARK  106  A    between atoms: _256  and  _257
REMARK  107  A    between atoms: _263  and  _265
REMARK  108  A    between atoms: _265  and  _266
REMARK  109  A    between atoms: _265  and  _268
REMARK  110  A    between atoms: _268  and  _269
REMARK  111  A    between atoms: _272  and  _274
REMARK  112  A    between atoms: _274  and  _275
REMARK  113  A    between atoms: _274  and  _277
REMARK  114  A    between atoms: _277  and  _278
REMARK  115  A    between atoms: _278  and  _279
REMARK  116  A    between atoms: _279  and  _280
REMARK  117  A    between atoms: _289  and  _291
REMARK  118  A    between atoms: _291  and  _292
REMARK  119  A    between atoms: _291  and  _294
REMARK  120  A    between atoms: _294  and  _295
REMARK  121  A    between atoms: _300  and  _301
REMARK  122  A    between atoms: _303  and  _305
REMARK  123  A    between atoms: _305  and  _306
REMARK  124  A    between atoms: _308  and  _310
REMARK  125  A    between atoms: _310  and  _311
REMARK  126  A    between atoms: _310  and  _313
REMARK  127  A    between atoms: _313  and  _314
REMARK  128  A    between atoms: _319  and  _320
REMARK  129  A    between atoms: _322  and  _324
REMARK  130  A    between atoms: _324  and  _325
REMARK  131  A    between atoms: _328  and  _330
REMARK  132  A    between atoms: _330  and  _331
REMARK  133  A    between atoms: _330  and  _333
REMARK  134  A    between atoms: _333  and  _334
REMARK  135  A    between atoms: _337  and  _339
REMARK  136  A    between atoms: _339  and  _340
REMARK  137  A    between atoms: _339  and  _342
REMARK  138  A    between atoms: _342  and  _343
REMARK  139  A    between atoms: _346  and  _348
REMARK  140  A    between atoms: _348  and  _349
REMARK  141  A    between atoms: _352  and  _354
REMARK  142  A    between atoms: _354  and  _355
REMARK  143  A    between atoms: _354  and  _357
REMARK  144  A    between atoms: _357  and  _358
REMARK  145  A    between atoms: _361  and  _363
REMARK  146  A    between atoms: _363  and  _364
REMARK  147  A    between atoms: _363  and  _366
REMARK  148  A    between atoms: _366  and  _367
REMARK  149  A    between atoms: _372  and  _374
REMARK  150  A    between atoms: _374  and  _375
REMARK  151  A    between atoms: _374  and  _377
REMARK  152  A    between atoms: _377  and  _378
REMARK  153  A    between atoms: _384  and  _386
REMARK  154  A    between atoms: _386  and  _387
REMARK  155  A    between atoms: _390  and  _392
REMARK  156  A    between atoms: _392  and  _393
REMARK  157  A    between atoms: _392  and  _395
REMARK  158  A    between atoms: _395  and  _396
REMARK  159  A    between atoms: _399  and  _401
REMARK  160  A    between atoms: _401  and  _402
REMARK  161  A    between atoms: _404  and  _406
REMARK  162  A    between atoms: _406  and  _407
REMARK  163  A    between atoms: _406  and  _409
REMARK  164  A    between atoms: _409  and  _410
REMARK  165  A    between atoms: _415  and  _417
REMARK  166  A    between atoms: _417  and  _418
REMARK  167  A    between atoms: _417  and  _420
REMARK  168  A    between atoms: _420  and  _421
REMARK  169  A    between atoms: _431  and  _433
REMARK  170  A    between atoms: _433  and  _434
REMARK  171  A    between atoms: _436  and  _438
REMARK  172  A    between atoms: _438  and  _439
REMARK  173  A    between atoms: _438  and  _441
REMARK  174  A    between atoms: _443  and  _445
REMARK  175  A    between atoms: _445  and  _446
REMARK  176  A    between atoms: _448  and  _450
REMARK  177  A    between atoms: _450  and  _451
REMARK  178  A    between atoms: _454  and  _456
REMARK  179  A    between atoms: _456  and  _457
REMARK  180  A    between atoms: _456  and  _459
REMARK  181  A    between atoms: _459  and  _460
REMARK  182  A    between atoms: _466  and  _468
REMARK  183  A    between atoms: _468  and  _469
REMARK  184  A    between atoms: _471  and  _473
REMARK  185  A    between atoms: _473  and  _474
REMARK  186  A    between atoms: _476  and  _478
REMARK  187  A    between atoms: _478  and  _479
REMARK  188  A    between atoms: _482  and  _484
REMARK  189  A    between atoms: _484  and  _485
REMARK  190  A    between atoms: _484  and  _487
REMARK  191  A    between atoms: _487  and  _488
REMARK  192  A    between atoms: _488  and  _489
REMARK  193  A    between atoms: _489  and  _490
REMARK  194  A    between atoms: _490  and  _491
REMARK  195  A    between atoms: _495  and  _497
REMARK  196  A    between atoms: _497  and  _498
REMARK  197  A    between atoms: _497  and  _500
REMARK  198  A    between atoms: _500  and  _501
REMARK  199  A    between atoms: _506  and  _507
REMARK  200  A    between atoms: _509  and  _511
REMARK  201  A    between atoms: _511  and  _512
REMARK  202  A    between atoms: _511  and  _514
REMARK  203  A    between atoms: _514  and  _515
REMARK  204  A    between atoms: _521  and  _523
REMARK  205  A    between atoms: _523  and  _524
REMARK  206  A    between atoms: _523  and  _526
REMARK  207  A    between atoms: _526  and  _527
REMARK  208  A    between atoms: _530  and  _532
REMARK  209  A    between atoms: _532  and  _533
REMARK  210  A    between atoms: _532  and  _535
REMARK  211  A    between atoms: _535  and  _536
REMARK  212  A    between atoms: _542  and  _544
REMARK  213  A    between atoms: _544  and  _545
REMARK  214  A    between atoms: _547  and  _549
REMARK  215  A    between atoms: _549  and  _550
REMARK  216  A    between atoms: _549  and  _552
REMARK  217  A    between atoms: _552  and  _553
REMARK  218  A    between atoms: _556  and  _558
REMARK  219  A    between atoms: _558  and  _559
REMARK  220  A    between atoms: _558  and  _561
REMARK  221  A    between atoms: _561  and  _562
REMARK                            x       y       z     vdW  Elec       q    Type
REMARK                         _______ _______ _______ _____ _____    ______ ____
ROOT
ATOM      1  O   HOH     1      32.284   4.920   4.596  0.00  0.00    +0.000 OA
ENDROOT
TORSDOF 0
REMARK  Name = ../refined-set-2016/4b1j/4b1j_pocket.pdb
REMARK  221 active torsions:
REMARK  status: ('A' for Active; 'I' for Inactive)
REMARK    1  A    between atoms: _1  and  _3
REMARK    2  A    between atoms: _3  and  _4
REMARK    3  A    between atoms: _3  and  _6
REMARK    4  A    between atoms: _6  and  _7
REMARK    5  A    between atoms: _7  and  _8
REMARK    6  A    between atoms: _11  and  _13
REMARK    7  A    between atoms: _13  and  _14
REMARK    8  A    between atoms: _16  and  _18
REMARK    9  A    between atoms: _18  and  _19
REMARK   10  A    between atoms: _18  and  _21
REMARK   11  A    between atoms: _21  and  _22
REMARK   12  A    between atoms: _25  and  _27
REMARK   13  A    between atoms: _27  and  _28
REMARK   14  A    between atoms: _27  and  _30
REMARK   15  A    between atoms: _30  and  _31
REMARK   16  A    between atoms: _34  and  _36
REMARK   17  A    between atoms: _36  and  _37
REMARK   18  A    between atoms: _36  and  _39
REMARK   19  A    between atoms: _39  and  _40
REMARK   20  A    between atoms: _40  and  _41
REMARK   21  A    between atoms: _44  and  _46
REMARK   22  A    between atoms: _46  and  _47
REMARK   23  A    between atoms: _46  and  _49
REMARK   24  A    between atoms: _49  and  _50
REMARK   25  A    between atoms: _50  and  _51
REMARK   26  A    between atoms: _54  and  _56
REMARK   27  A    between atoms: _56  and  _57
REMARK   28  A    between atoms: _56  and  _59
REMARK   29  A    between atoms: _59  and  _60
REMARK   30  A    between atoms: _65  and  _67
REMARK   31  A    between atoms: _67  and  _68
REMARK   32  A    between atoms: _67  and  _70
REMARK   33  A    between atoms: _73  and  _75
REMARK   34  A    between atoms: _75  and  _76
REMARK   35  A    between atoms: _75  and  _78
REMARK   36  A    between atoms: _78  and  _79
REMARK   37  A    between atoms: _82  and  _84
REMARK   38  A    between atoms: _84  and  _85
REMARK   39  A    between atoms: _84  and  _87
REMARK   40  A    between atoms: _87  and  _88
REMARK   41  A    between atoms: _94  and  _96
REMARK   42  A    between atoms: _96  and  _97
REMARK   43  A    between atoms: _100  and  _102
REMARK   44  A    between atoms: _102  and  _103
REMARK   45  A    between atoms: _102  and  _105
REMARK   46  A    between atoms: _105  and  _106
REMARK   47  A    between atoms: _111  and  _113
REMARK   48  A    between atoms: _113  and  _114
REMARK   49  A    between atoms: _113  and  _116
REMARK   50  A    between atoms: _116  and  _117
REMARK   51  A    between atoms: _117  and  _118
REMARK   52  A    between atoms: _118  and  _119
REMARK   53  A    between atoms: _128  and  _130
REMARK   54  A    between atoms: _130  and  _131
REMARK   55  A    between atoms: _130  and  _133
REMARK   56  A    between atoms: _133  and  _134
REMARK   57  A    between atoms: _140  and  _142
REMARK   58  A    between atoms: _142  and  _143
REMARK   59  A    between atoms: _142  and  _145
REMARK   60  A    between atoms: _148  and  _150
REMARK   61  A    between atoms: _150  and  _151
REMARK   62  A    between atoms: _153  and  _155
REMARK   63  A    between atoms: _155  and  _156
REMARK   64  A    between atoms: _158  and  _160
REMARK   65  A    between atoms: _160  and  _161
REMARK   66  A    between atoms: _163  and  _165
REMARK   67  A    between atoms: _165  and  _166
REMARK   68  A    between atoms: _165  and  _168
REMARK   69  A    between atoms: _171  and  _173
REMARK   70  A    between atoms: _173  and  _174
REMARK   71  A    between atoms: _176  and  _178
REMARK   72  A    between atoms: _178  and  _179
REMARK   73  A    between atoms: _178  and  _181
REMARK   74  A    between atoms: _181  and  _182
REMARK   75  A    between atoms: _185  and  _187
REMARK   76  A    between atoms: _187  and  _188
REMARK   77  A    between atoms: _187  and  _190
REMARK   78  A    between atoms: _193  and  _195
REMARK   79  A    between atoms: _195  and  _196
REMARK   80  A    between atoms: _195  and  _198
REMARK   81  A    between atoms: _198  and  _199
REMARK   82  A    between atoms: _199  and  _200
REMARK   83  A    between atoms: _205  and  _207
REMARK   84  A    between atoms: _207  and  _208
REMARK   85  A    between atoms: _207  and  _210
REMARK   86  A    between atoms: _210  and  _211
REMARK   87  A    between atoms: _211  and  _212
REMARK   88  A    between atoms: _215  and  _217
REMARK   89  A    between atoms: _217  and  _218
REMARK   90  A    between atoms: _217  and  _220
REMARK   91  A    between atoms: _220  and  _221
REMARK   92  A    between atoms: _221  and  _222
REMARK   93  A    between atoms: _225  and  _227
REMARK   94  A    between atoms: _227  and  _228
REMARK   95  A    between atoms: _227  and  _230
REMARK   96  A    between atoms: _230  and  _231
REMARK   97  A    between atoms: _234  and  _236
REMARK   98  A    between atoms: _236  and  _237
REMARK   99  A    between atoms: _236  and  _239
REMARK  100  A    between atoms: _239  and  _240
REMARK  101  A    between atoms: _240  and  _241
REMARK  102  A    between atoms: _241  and  _242
REMARK  103  A    between atoms: _251  and  _253
REMARK  104  A    between atoms: _253  and  _254
REMARK  105  A    between atoms: _253  and  _256
REMARK  106  A    between atoms: _256  and  _257
REMARK  107  A    between atoms: _263  and  _265
REMARK  108  A    between atoms: _265  and  _266
REMARK  109  A    between atoms: _265  and  _268
REMARK  110  A    between atoms: _268  and  _269
REMARK  111  A    between atoms: _272  and  _274
REMARK  112  A    between atoms: _274  and  _275
REMARK  113  A    between atoms: _274  and  _277
REMARK  114  A    between atoms: _277  and  _278
REMARK  115  A    between atoms: _278  and  _279
REMARK  116  A    between atoms: _279  and  _280
REMARK  117  A    between atoms: _289  and  _291
REMARK  118  A    between atoms: _291  and  _292
REMARK  119  A    between atoms: _291  and  _294
REMARK  120  A    between atoms: _294  and  _295
REMARK  121  A    between atoms: _300  and  _301
REMARK  122  A    between atoms: _303  and  _305
REMARK  123  A    between atoms: _305  and  _306
REMARK  124  A    between atoms: _308  and  _310
REMARK  125  A    between atoms: _310  and  _311
REMARK  126  A    between atoms: _310  and  _313
REMARK  127  A    between atoms: _313  and  _314
REMARK  128  A    between atoms: _319  and  _320
REMARK  129  A    between atoms: _322  and  _324
REMARK  130  A    between atoms: _324  and  _325
REMARK  131  A    between atoms: _328  and  _330
REMARK  132  A    between atoms: _330  and  _331
REMARK  133  A    between atoms: _330  and  _333
REMARK  134  A    between atoms: _333  and  _334
REMARK  135  A    between atoms: _337  and  _339
REMARK  136  A    between atoms: _339  and  _340
REMARK  137  A    between atoms: _339  and  _342
REMARK  138  A    between atoms: _342  and  _343
REMARK  139  A    between atoms: _346  and  _348
REMARK  140  A    between atoms: _348  and  _349
REMARK  141  A    between atoms: _352  and  _354
REMARK  142  A    between atoms: _354  and  _355
REMARK  143  A    between atoms: _354  and  _357
REMARK  144  A    between atoms: _357  and  _358
REMARK  145  A    between atoms: _361  and  _363
REMARK  146  A    between atoms: _363  and  _364
REMARK  147  A    between atoms: _363  and  _366
REMARK  148  A    between atoms: _366  and  _367
REMARK  149  A    between atoms: _372  and  _374
REMARK  150  A    between atoms: _374  and  _375
REMARK  151  A    between atoms: _374  and  _377
REMARK  152  A    between atoms: _377  and  _378
REMARK  153  A    between atoms: _384  and  _386
REMARK  154  A    between atoms: _386  and  _387
REMARK  155  A    between atoms: _390  and  _392
REMARK  156  A    between atoms: _392  and  _393
REMARK  157  A    between atoms: _392  and  _395
REMARK  158  A    between atoms: _395  and  _396
REMARK  159  A    between atoms: _399  and  _401
REMARK  160  A    between atoms: _401  and  _402
REMARK  161  A    between atoms: _404  and  _406
REMARK  162  A    between atoms: _406  and  _407
REMARK  163  A    between atoms: _406  and  _409
REMARK  164  A    between atoms: _409  and  _410
REMARK  165  A    between atoms: _415  and  _417
REMARK  166  A    between atoms: _417  and  _418
REMARK  167  A    between atoms: _417  and  _420
REMARK  168  A    between atoms: _420  and  _421
REMARK  169  A    between atoms: _431  and  _433
REMARK  170  A    between atoms: _433  and  _434
REMARK  171  A    between atoms: _436  and  _438
REMARK  172  A    between atoms: _438  and  _439
REMARK  173  A    between atoms: _438  and  _441
REMARK  174  A    between atoms: _443  and  _445
REMARK  175  A    between atoms: _445  and  _446
REMARK  176  A    between atoms: _448  and  _450
REMARK  177  A    between atoms: _450  and  _451
REMARK  178  A    between atoms: _454  and  _456
REMARK  179  A    between atoms: _456  and  _457
REMARK  180  A    between atoms: _456  and  _459
REMARK  181  A    between atoms: _459  and  _460
REMARK  182  A    between atoms: _466  and  _468
REMARK  183  A    between atoms: _468  and  _469
REMARK  184  A    between atoms: _471  and  _473
REMARK  185  A    between atoms: _473  and  _474
REMARK  186  A    between atoms: _476  and  _478
REMARK  187  A    between atoms: _478  and  _479
REMARK  188  A    between atoms: _482  and  _484
REMARK  189  A    between atoms: _484  and  _485
REMARK  190  A    between atoms: _484  and  _487
REMARK  191  A    between atoms: _487  and  _488
REMARK  192  A    between atoms: _488  and  _489
REMARK  193  A    between atoms: _489  and  _490
REMARK  194  A    between atoms: _490  and  _491
REMARK  195  A    between atoms: _495  and  _497
REMARK  196  A    between atoms: _497  and  _498
REMARK  197  A    between atoms: _497  and  _500
REMARK  198  A    between atoms: _500  and  _501
REMARK  199  A    between atoms: _506  and  _507
REMARK  200  A    between atoms: _509  and  _511
REMARK  201  A    between atoms: _511  and  _512
REMARK  202  A    between atoms: _511  and  _514
REMARK  203  A    between atoms: _514  and  _515
REMARK  204  A    between atoms: _521  and  _523
REMARK  205  A    between atoms: _523  and  _524
REMARK  206  A    between atoms: _523  and  _526
REMARK  207  A    between atoms: _526  and  _527
REMARK  208  A    between atoms: _530  and  _532
REMARK  209  A    between atoms: _532  and  _533
REMARK  210  A    between atoms: _532  and  _535
REMARK  211  A    between atoms: _535  and  _536
REMARK  212  A    between atoms: _542  and  _544
REMARK  213  A    between atoms: _544  and  _545
REMARK  214  A    between atoms: _547  and  _549
REMARK  215  A    between atoms: _549  and  _550
REMARK  216  A    between atoms: _549  and  _552
REMARK  217  A    between atoms: _552  and  _553
REMARK  218  A    between atoms: _556  and  _558
REMARK  219  A    between atoms: _558  and  _559
REMARK  220  A    between atoms: _558  and  _561
REMARK  221  A    between atoms: _561  and  _562
REMARK                            x       y       z     vdW  Elec       q    Type
REMARK                         _______ _______ _______ _____ _____    ______ ____
ROOT
ATOM      1  O   HOH     1      24.802  -9.090  -4.831  0.00  0.00    +0.000 OA
ENDROOT
TORSDOF 0
REMARK  Name = ../refined-set-2016/4b1j/4b1j_pocket.pdb
REMARK  221 active torsions:
REMARK  status: ('A' for Active; 'I' for Inactive)
REMARK    1  A    between atoms: _1  and  _3
REMARK    2  A    between atoms: _3  and  _4
REMARK    3  A    between atoms: _3  and  _6
REMARK    4  A    between atoms: _6  and  _7
REMARK    5  A    between atoms: _7  and  _8
REMARK    6  A    between atoms: _11  and  _13
REMARK    7  A    between atoms: _13  and  _14
REMARK    8  A    between atoms: _16  and  _18
REMARK    9  A    between atoms: _18  and  _19
REMARK   10  A    between atoms: _18  and  _21
REMARK   11  A    between atoms: _21  and  _22
REMARK   12  A    between atoms: _25  and  _27
REMARK   13  A    between atoms: _27  and  _28
REMARK   14  A    between atoms: _27  and  _30
REMARK   15  A    between atoms: _30  and  _31
REMARK   16  A    between atoms: _34  and  _36
REMARK   17  A    between atoms: _36  and  _37
REMARK   18  A    between atoms: _36  and  _39
REMARK   19  A    between atoms: _39  and  _40
REMARK   20  A    between atoms: _40  and  _41
REMARK   21  A    between atoms: _44  and  _46
REMARK   22  A    between atoms: _46  and  _47
REMARK   23  A    between atoms: _46  and  _49
REMARK   24  A    between atoms: _49  and  _50
REMARK   25  A    between atoms: _50  and  _51
REMARK   26  A    between atoms: _54  and  _56
REMARK   27  A    between atoms: _56  and  _57
REMARK   28  A    between atoms: _56  and  _59
REMARK   29  A    between atoms: _59  and  _60
REMARK   30  A    between atoms: _65  and  _67
REMARK   31  A    between atoms: _67  and  _68
REMARK   32  A    between atoms: _67  and  _70
REMARK   33  A    between atoms: _73  and  _75
REMARK   34  A    between atoms: _75  and  _76
REMARK   35  A    between atoms: _75  and  _78
REMARK   36  A    between atoms: _78  and  _79
REMARK   37  A    between atoms: _82  and  _84
REMARK   38  A    between atoms: _84  and  _85
REMARK   39  A    between atoms: _84  and  _87
REMARK   40  A    between atoms: _87  and  _88
REMARK   41  A    between atoms: _94  and  _96
REMARK   42  A    between atoms: _96  and  _97
REMARK   43  A    between atoms: _100  and  _102
REMARK   44  A    between atoms: _102  and  _103
REMARK   45  A    between atoms: _102  and  _105
REMARK   46  A    between atoms: _105  and  _106
REMARK   47  A    between atoms: _111  and  _113
REMARK   48  A    between atoms: _113  and  _114
REMARK   49  A    between atoms: _113  and  _116
REMARK   50  A    between atoms: _116  and  _117
REMARK   51  A    between atoms: _117  and  _118
REMARK   52  A    between atoms: _118  and  _119
REMARK   53  A    between atoms: _128  and  _130
REMARK   54  A    between atoms: _130  and  _131
REMARK   55  A    between atoms: _130  and  _133
REMARK   56  A    between atoms: _133  and  _134
REMARK   57  A    between atoms: _140  and  _142
REMARK   58  A    between atoms: _142  and  _143
REMARK   59  A    between atoms: _142  and  _145
REMARK   60  A    between atoms: _148  and  _150
REMARK   61  A    between atoms: _150  and  _151
REMARK   62  A    between atoms: _153  and  _155
REMARK   63  A    between atoms: _155  and  _156
REMARK   64  A    between atoms: _158  and  _160
REMARK   65  A    between atoms: _160  and  _161
REMARK   66  A    between atoms: _163  and  _165
REMARK   67  A    between atoms: _165  and  _166
REMARK   68  A    between atoms: _165  and  _168
REMARK   69  A    between atoms: _171  and  _173
REMARK   70  A    between atoms: _173  and  _174
REMARK   71  A    between atoms: _176  and  _178
REMARK   72  A    between atoms: _178  and  _179
REMARK   73  A    between atoms: _178  and  _181
REMARK   74  A    between atoms: _181  and  _182
REMARK   75  A    between atoms: _185  and  _187
REMARK   76  A    between atoms: _187  and  _188
REMARK   77  A    between atoms: _187  and  _190
REMARK   78  A    between atoms: _193  and  _195
REMARK   79  A    between atoms: _195  and  _196
REMARK   80  A    between atoms: _195  and  _198
REMARK   81  A    between atoms: _198  and  _199
REMARK   82  A    between atoms: _199  and  _200
REMARK   83  A    between atoms: _205  and  _207
REMARK   84  A    between atoms: _207  and  _208
REMARK   85  A    between atoms: _207  and  _210
REMARK   86  A    between atoms: _210  and  _211
REMARK   87  A    between atoms: _211  and  _212
REMARK   88  A    between atoms: _215  and  _217
REMARK   89  A    between atoms: _217  and  _218
REMARK   90  A    between atoms: _217  and  _220
REMARK   91  A    between atoms: _220  and  _221
REMARK   92  A    between atoms: _221  and  _222
REMARK   93  A    between atoms: _225  and  _227
REMARK   94  A    between atoms: _227  and  _228
REMARK   95  A    between atoms: _227  and  _230
REMARK   96  A    between atoms: _230  and  _231
REMARK   97  A    between atoms: _234  and  _236
REMARK   98  A    between atoms: _236  and  _237
REMARK   99  A    between atoms: _236  and  _239
REMARK  100  A    between atoms: _239  and  _240
REMARK  101  A    between atoms: _240  and  _241
REMARK  102  A    between atoms: _241  and  _242
REMARK  103  A    between atoms: _251  and  _253
REMARK  104  A    between atoms: _253  and  _254
REMARK  105  A    between atoms: _253  and  _256
REMARK  106  A    between atoms: _256  and  _257
REMARK  107  A    between atoms: _263  and  _265
REMARK  108  A    between atoms: _265  and  _266
REMARK  109  A    between atoms: _265  and  _268
REMARK  110  A    between atoms: _268  and  _269
REMARK  111  A    between atoms: _272  and  _274
REMARK  112  A    between atoms: _274  and  _275
REMARK  113  A    between atoms: _274  and  _277
REMARK  114  A    between atoms: _277  and  _278
REMARK  115  A    between atoms: _278  and  _279
REMARK  116  A    between atoms: _279  and  _280
REMARK  117  A    between atoms: _289  and  _291
REMARK  118  A    between atoms: _291  and  _292
REMARK  119  A    between atoms: _291  and  _294
REMARK  120  A    between atoms: _294  and  _295
REMARK  121  A    between atoms: _300  and  _301
REMARK  122  A    between atoms: _303  and  _305
REMARK  123  A    between atoms: _305  and  _306
REMARK  124  A    between atoms: _308  and  _310
REMARK  125  A    between atoms: _310  and  _311
REMARK  126  A    between atoms: _310  and  _313
REMARK  127  A    between atoms: _313  and  _314
REMARK  128  A    between atoms: _319  and  _320
REMARK  129  A    between atoms: _322  and  _324
REMARK  130  A    between atoms: _324  and  _325
REMARK  131  A    between atoms: _328  and  _330
REMARK  132  A    between atoms: _330  and  _331
REMARK  133  A    between atoms: _330  and  _333
REMARK  134  A    between atoms: _333  and  _334
REMARK  135  A    between atoms: _337  and  _339
REMARK  136  A    between atoms: _339  and  _340
REMARK  137  A    between atoms: _339  and  _342
REMARK  138  A    between atoms: _342  and  _343
REMARK  139  A    between atoms: _346  and  _348
REMARK  140  A    between atoms: _348  and  _349
REMARK  141  A    between atoms: _352  and  _354
REMARK  142  A    between atoms: _354  and  _355
REMARK  143  A    between atoms: _354  and  _357
REMARK  144  A    between atoms: _357  and  _358
REMARK  145  A    between atoms: _361  and  _363
REMARK  146  A    between atoms: _363  and  _364
REMARK  147  A    between atoms: _363  and  _366
REMARK  148  A    between atoms: _366  and  _367
REMARK  149  A    between atoms: _372  and  _374
REMARK  150  A    between atoms: _374  and  _375
REMARK  151  A    between atoms: _374  and  _377
REMARK  152  A    between atoms: _377  and  _378
REMARK  153  A    between atoms: _384  and  _386
REMARK  154  A    between atoms: _386  and  _387
REMARK  155  A    between atoms: _390  and  _392
REMARK  156  A    between atoms: _392  and  _393
REMARK  157  A    between atoms: _392  and  _395
REMARK  158  A    between atoms: _395  and  _396
REMARK  159  A    between atoms: _399  and  _401
REMARK  160  A    between atoms: _401  and  _402
REMARK  161  A    between atoms: _404  and  _406
REMARK  162  A    between atoms: _406  and  _407
REMARK  163  A    between atoms: _406  and  _409
REMARK  164  A    between atoms: _409  and  _410
REMARK  165  A    between atoms: _415  and  _417
REMARK  166  A    between atoms: _417  and  _418
REMARK  167  A    between atoms: _417  and  _420
REMARK  168  A    between atoms: _420  and  _421
REMARK  169  A    between atoms: _431  and  _433
REMARK  170  A    between atoms: _433  and  _434
REMARK  171  A    between atoms: _436  and  _438
REMARK  172  A    between atoms: _438  and  _439
REMARK  173  A    between atoms: _438  and  _441
REMARK  174  A    between atoms: _443  and  _445
REMARK  175  A    between atoms: _445  and  _446
REMARK  176  A    between atoms: _448  and  _450
REMARK  177  A    between atoms: _450  and  _451
REMARK  178  A    between atoms: _454  and  _456
REMARK  179  A    between atoms: _456  and  _457
REMARK  180  A    between atoms: _456  and  _459
REMARK  181  A    between atoms: _459  and  _460
REMARK  182  A    between atoms: _466  and  _468
REMARK  183  A    between atoms: _468  and  _469
REMARK  184  A    between atoms: _471  and  _473
REMARK  185  A    between atoms: _473  and  _474
REMARK  186  A    between atoms: _476  and  _478
REMARK  187  A    between atoms: _478  and  _479
REMARK  188  A    between atoms: _482  and  _484
REMARK  189  A    between atoms: _484  and  _485
REMARK  190  A    between atoms: _484  and  _487
REMARK  191  A    between atoms: _487  and  _488
REMARK  192  A    between atoms: _488  and  _489
REMARK  193  A    between atoms: _489  and  _490
REMARK  194  A    between atoms: _490  and  _491
REMARK  195  A    between atoms: _495  and  _497
REMARK  196  A    between atoms: _497  and  _498
REMARK  197  A    between atoms: _497  and  _500
REMARK  198  A    between atoms: _500  and  _501
REMARK  199  A    between atoms: _506  and  _507
REMARK  200  A    between atoms: _509  and  _511
REMARK  201  A    between atoms: _511  and  _512
REMARK  202  A    between atoms: _511  and  _514
REMARK  203  A    between atoms: _514  and  _515
REMARK  204  A    between atoms: _521  and  _523
REMARK  205  A    between atoms: _523  and  _524
REMARK  206  A    between atoms: _523  and  _526
REMARK  207  A    between atoms: _526  and  _527
REMARK  208  A    between atoms: _530  and  _532
REMARK  209  A    between atoms: _532  and  _533
REMARK  210  A    between atoms: _532  and  _535
REMARK  211  A    between atoms: _535  and  _536
REMARK  212  A    between atoms: _542  and  _544
REMARK  213  A    between atoms: _544  and  _545
REMARK  214  A    between atoms: _547  and  _549
REMARK  215  A    between atoms: _549  and  _550
REMARK  216  A    between atoms: _549  and  _552
REMARK  217  A    between atoms: _552  and  _553
REMARK  218  A    between atoms: _556  and  _558
REMARK  219  A    between atoms: _558  and  _559
REMARK  220  A    between atoms: _558  and  _561
REMARK  221  A    between atoms: _561  and  _562
REMARK                            x       y       z     vdW  Elec       q    Type
REMARK                         _______ _______ _______ _____ _____    ______ ____
ROOT
ATOM      1  O   HOH     1      33.351   2.810   2.758  0.00  0.00    +0.000 OA
ENDROOT
TORSDOF 0
REMARK  Name = ../refined-set-2016/4b1j/4b1j_pocket.pdb
REMARK  221 active torsions:
REMARK  status: ('A' for Active; 'I' for Inactive)
REMARK    1  A    between atoms: _1  and  _3
REMARK    2  A    between atoms: _3  and  _4
REMARK    3  A    between atoms: _3  and  _6
REMARK    4  A    between atoms: _6  and  _7
REMARK    5  A    between atoms: _7  and  _8
REMARK    6  A    between atoms: _11  and  _13
REMARK    7  A    between atoms: _13  and  _14
REMARK    8  A    between atoms: _16  and  _18
REMARK    9  A    between atoms: _18  and  _19
REMARK   10  A    between atoms: _18  and  _21
REMARK   11  A    between atoms: _21  and  _22
REMARK   12  A    between atoms: _25  and  _27
REMARK   13  A    between atoms: _27  and  _28
REMARK   14  A    between atoms: _27  and  _30
REMARK   15  A    between atoms: _30  and  _31
REMARK   16  A    between atoms: _34  and  _36
REMARK   17  A    between atoms: _36  and  _37
REMARK   18  A    between atoms: _36  and  _39
REMARK   19  A    between atoms: _39  and  _40
REMARK   20  A    between atoms: _40  and  _41
REMARK   21  A    between atoms: _44  and  _46
REMARK   22  A    between atoms: _46  and  _47
REMARK   23  A    between atoms: _46  and  _49
REMARK   24  A    between atoms: _49  and  _50
REMARK   25  A    between atoms: _50  and  _51
REMARK   26  A    between atoms: _54  and  _56
REMARK   27  A    between atoms: _56  and  _57
REMARK   28  A    between atoms: _56  and  _59
REMARK   29  A    between atoms: _59  and  _60
REMARK   30  A    between atoms: _65  and  _67
REMARK   31  A    between atoms: _67  and  _68
REMARK   32  A    between atoms: _67  and  _70
REMARK   33  A    between atoms: _73  and  _75
REMARK   34  A    between atoms: _75  and  _76
REMARK   35  A    between atoms: _75  and  _78
REMARK   36  A    between atoms: _78  and  _79
REMARK   37  A    between atoms: _82  and  _84
REMARK   38  A    between atoms: _84  and  _85
REMARK   39  A    between atoms: _84  and  _87
REMARK   40  A    between atoms: _87  and  _88
REMARK   41  A    between atoms: _94  and  _96
REMARK   42  A    between atoms: _96  and  _97
REMARK   43  A    between atoms: _100  and  _102
REMARK   44  A    between atoms: _102  and  _103
REMARK   45  A    between atoms: _102  and  _105
REMARK   46  A    between atoms: _105  and  _106
REMARK   47  A    between atoms: _111  and  _113
REMARK   48  A    between atoms: _113  and  _114
REMARK   49  A    between atoms: _113  and  _116
REMARK   50  A    between atoms: _116  and  _117
REMARK   51  A    between atoms: _117  and  _118
REMARK   52  A    between atoms: _118  and  _119
REMARK   53  A    between atoms: _128  and  _130
REMARK   54  A    between atoms: _130  and  _131
REMARK   55  A    between atoms: _130  and  _133
REMARK   56  A    between atoms: _133  and  _134
REMARK   57  A    between atoms: _140  and  _142
REMARK   58  A    between atoms: _142  and  _143
REMARK   59  A    between atoms: _142  and  _145
REMARK   60  A    between atoms: _148  and  _150
REMARK   61  A    between atoms: _150  and  _151
REMARK   62  A    between atoms: _153  and  _155
REMARK   63  A    between atoms: _155  and  _156
REMARK   64  A    between atoms: _158  and  _160
REMARK   65  A    between atoms: _160  and  _161
REMARK   66  A    between atoms: _163  and  _165
REMARK   67  A    between atoms: _165  and  _166
REMARK   68  A    between atoms: _165  and  _168
REMARK   69  A    between atoms: _171  and  _173
REMARK   70  A    between atoms: _173  and  _174
REMARK   71  A    between atoms: _176  and  _178
REMARK   72  A    between atoms: _178  and  _179
REMARK   73  A    between atoms: _178  and  _181
REMARK   74  A    between atoms: _181  and  _182
REMARK   75  A    between atoms: _185  and  _187
REMARK   76  A    between atoms: _187  and  _188
REMARK   77  A    between atoms: _187  and  _190
REMARK   78  A    between atoms: _193  and  _195
REMARK   79  A    between atoms: _195  and  _196
REMARK   80  A    between atoms: _195  and  _198
REMARK   81  A    between atoms: _198  and  _199
REMARK   82  A    between atoms: _199  and  _200
REMARK   83  A    between atoms: _205  and  _207
REMARK   84  A    between atoms: _207  and  _208
REMARK   85  A    between atoms: _207  and  _210
REMARK   86  A    between atoms: _210  and  _211
REMARK   87  A    between atoms: _211  and  _212
REMARK   88  A    between atoms: _215  and  _217
REMARK   89  A    between atoms: _217  and  _218
REMARK   90  A    between atoms: _217  and  _220
REMARK   91  A    between atoms: _220  and  _221
REMARK   92  A    between atoms: _221  and  _222
REMARK   93  A    between atoms: _225  and  _227
REMARK   94  A    between atoms: _227  and  _228
REMARK   95  A    between atoms: _227  and  _230
REMARK   96  A    between atoms: _230  and  _231
REMARK   97  A    between atoms: _234  and  _236
REMARK   98  A    between atoms: _236  and  _237
REMARK   99  A    between atoms: _236  and  _239
REMARK  100  A    between atoms: _239  and  _240
REMARK  101  A    between atoms: _240  and  _241
REMARK  102  A    between atoms: _241  and  _242
REMARK  103  A    between atoms: _251  and  _253
REMARK  104  A    between atoms: _253  and  _254
REMARK  105  A    between atoms: _253  and  _256
REMARK  106  A    between atoms: _256  and  _257
REMARK  107  A    between atoms: _263  and  _265
REMARK  108  A    between atoms: _265  and  _266
REMARK  109  A    between atoms: _265  and  _268
REMARK  110  A    between atoms: _268  and  _269
REMARK  111  A    between atoms: _272  and  _274
REMARK  112  A    between atoms: _274  and  _275
REMARK  113  A    between atoms: _274  and  _277
REMARK  114  A    between atoms: _277  and  _278
REMARK  115  A    between atoms: _278  and  _279
REMARK  116  A    between atoms: _279  and  _280
REMARK  117  A    between atoms: _289  and  _291
REMARK  118  A    between atoms: _291  and  _292
REMARK  119  A    between atoms: _291  and  _294
REMARK  120  A    between atoms: _294  and  _295
REMARK  121  A    between atoms: _300  and  _301
REMARK  122  A    between atoms: _303  and  _305
REMARK  123  A    between atoms: _305  and  _306
REMARK  124  A    between atoms: _308  and  _310
REMARK  125  A    between atoms: _310  and  _311
REMARK  126  A    between atoms: _310  and  _313
REMARK  127  A    between atoms: _313  and  _314
REMARK  128  A    between atoms: _319  and  _320
REMARK  129  A    between atoms: _322  and  _324
REMARK  130  A    between atoms: _324  and  _325
REMARK  131  A    between atoms: _328  and  _330
REMARK  132  A    between atoms: _330  and  _331
REMARK  133  A    between atoms: _330  and  _333
REMARK  134  A    between atoms: _333  and  _334
REMARK  135  A    between atoms: _337  and  _339
REMARK  136  A    between atoms: _339  and  _340
REMARK  137  A    between atoms: _339  and  _342
REMARK  138  A    between atoms: _342  and  _343
REMARK  139  A    between atoms: _346  and  _348
REMARK  140  A    between atoms: _348  and  _349
REMARK  141  A    between atoms: _352  and  _354
REMARK  142  A    between atoms: _354  and  _355
REMARK  143  A    between atoms: _354  and  _357
REMARK  144  A    between atoms: _357  and  _358
REMARK  145  A    between atoms: _361  and  _363
REMARK  146  A    between atoms: _363  and  _364
REMARK  147  A    between atoms: _363  and  _366
REMARK  148  A    between atoms: _366  and  _367
REMARK  149  A    between atoms: _372  and  _374
REMARK  150  A    between atoms: _374  and  _375
REMARK  151  A    between atoms: _374  and  _377
REMARK  152  A    between atoms: _377  and  _378
REMARK  153  A    between atoms: _384  and  _386
REMARK  154  A    between atoms: _386  and  _387
REMARK  155  A    between atoms: _390  and  _392
REMARK  156  A    between atoms: _392  and  _393
REMARK  157  A    between atoms: _392  and  _395
REMARK  158  A    between atoms: _395  and  _396
REMARK  159  A    between atoms: _399  and  _401
REMARK  160  A    between atoms: _401  and  _402
REMARK  161  A    between atoms: _404  and  _406
REMARK  162  A    between atoms: _406  and  _407
REMARK  163  A    between atoms: _406  and  _409
REMARK  164  A    between atoms: _409  and  _410
REMARK  165  A    between atoms: _415  and  _417
REMARK  166  A    between atoms: _417  and  _418
REMARK  167  A    between atoms: _417  and  _420
REMARK  168  A    between atoms: _420  and  _421
REMARK  169  A    between atoms: _431  and  _433
REMARK  170  A    between atoms: _433  and  _434
REMARK  171  A    between atoms: _436  and  _438
REMARK  172  A    between atoms: _438  and  _439
REMARK  173  A    between atoms: _438  and  _441
REMARK  174  A    between atoms: _443  and  _445
REMARK  175  A    between atoms: _445  and  _446
REMARK  176  A    between atoms: _448  and  _450
REMARK  177  A    between atoms: _450  and  _451
REMARK  178  A    between atoms: _454  and  _456
REMARK  179  A    between atoms: _456  and  _457
REMARK  180  A    between atoms: _456  and  _459
REMARK  181  A    between atoms: _459  and  _460
REMARK  182  A    between atoms: _466  and  _468
REMARK  183  A    between atoms: _468  and  _469
REMARK  184  A    between atoms: _471  and  _473
REMARK  185  A    between atoms: _473  and  _474
REMARK  186  A    between atoms: _476  and  _478
REMARK  187  A    between atoms: _478  and  _479
REMARK  188  A    between atoms: _482  and  _484
REMARK  189  A    between atoms: _484  and  _485
REMARK  190  A    between atoms: _484  and  _487
REMARK  191  A    between atoms: _487  and  _488
REMARK  192  A    between atoms: _488  and  _489
REMARK  193  A    between atoms: _489  and  _490
REMARK  194  A    between atoms: _490  and  _491
REMARK  195  A    between atoms: _495  and  _497
REMARK  196  A    between atoms: _497  and  _498
REMARK  197  A    between atoms: _497  and  _500
REMARK  198  A    between atoms: _500  and  _501
REMARK  199  A    between atoms: _506  and  _507
REMARK  200  A    between atoms: _509  and  _511
REMARK  201  A    between atoms: _511  and  _512
REMARK  202  A    between atoms: _511  and  _514
REMARK  203  A    between atoms: _514  and  _515
REMARK  204  A    between atoms: _521  and  _523
REMARK  205  A    between atoms: _523  and  _524
REMARK  206  A    between atoms: _523  and  _526
REMARK  207  A    between atoms: _526  and  _527
REMARK  208  A    between atoms: _530  and  _532
REMARK  209  A    between atoms: _532  and  _533
REMARK  210  A    between atoms: _532  and  _535
REMARK  211  A    between atoms: _535  and  _536
REMARK  212  A    between atoms: _542  and  _544
REMARK  213  A    between atoms: _544  and  _545
REMARK  214  A    between atoms: _547  and  _549
REMARK  215  A    between atoms: _549  and  _550
REMARK  216  A    between atoms: _549  and  _552
REMARK  217  A    between atoms: _552  and  _553
REMARK  218  A    between atoms: _556  and  _558
REMARK  219  A    between atoms: _558  and  _559
REMARK  220  A    between atoms: _558  and  _561
REMARK  221  A    between atoms: _561  and  _562
REMARK                            x       y       z     vdW  Elec       q    Type
REMARK                         _______ _______ _______ _____ _____    ______ ____
ROOT
ATOM      1  O   HOH     1      25.094  -5.682  -7.006  0.00  0.00    +0.000 OA
ENDROOT
TORSDOF 0
REMARK  Name = ../refined-set-2016/4b1j/4b1j_pocket.pdb
REMARK  221 active torsions:
REMARK  status: ('A' for Active; 'I' for Inactive)
REMARK    1  A    between atoms: _1  and  _3
REMARK    2  A    between atoms: _3  and  _4
REMARK    3  A    between atoms: _3  and  _6
REMARK    4  A    between atoms: _6  and  _7
REMARK    5  A    between atoms: _7  and  _8
REMARK    6  A    between atoms: _11  and  _13
REMARK    7  A    between atoms: _13  and  _14
REMARK    8  A    between atoms: _16  and  _18
REMARK    9  A    between atoms: _18  and  _19
REMARK   10  A    between atoms: _18  and  _21
REMARK   11  A    between atoms: _21  and  _22
REMARK   12  A    between atoms: _25  and  _27
REMARK   13  A    between atoms: _27  and  _28
REMARK   14  A    between atoms: _27  and  _30
REMARK   15  A    between atoms: _30  and  _31
REMARK   16  A    between atoms: _34  and  _36
REMARK   17  A    between atoms: _36  and  _37
REMARK   18  A    between atoms: _36  and  _39
REMARK   19  A    between atoms: _39  and  _40
REMARK   20  A    between atoms: _40  and  _41
REMARK   21  A    between atoms: _44  and  _46
REMARK   22  A    between atoms: _46  and  _47
REMARK   23  A    between atoms: _46  and  _49
REMARK   24  A    between atoms: _49  and  _50
REMARK   25  A    between atoms: _50  and  _51
REMARK   26  A    between atoms: _54  and  _56
REMARK   27  A    between atoms: _56  and  _57
REMARK   28  A    between atoms: _56  and  _59
REMARK   29  A    between atoms: _59  and  _60
REMARK   30  A    between atoms: _65  and  _67
REMARK   31  A    between atoms: _67  and  _68
REMARK   32  A    between atoms: _67  and  _70
REMARK   33  A    between atoms: _73  and  _75
REMARK   34  A    between atoms: _75  and  _76
REMARK   35  A    between atoms: _75  and  _78
REMARK   36  A    between atoms: _78  and  _79
REMARK   37  A    between atoms: _82  and  _84
REMARK   38  A    between atoms: _84  and  _85
REMARK   39  A    between atoms: _84  and  _87
REMARK   40  A    between atoms: _87  and  _88
REMARK   41  A    between atoms: _94  and  _96
REMARK   42  A    between atoms: _96  and  _97
REMARK   43  A    between atoms: _100  and  _102
REMARK   44  A    between atoms: _102  and  _103
REMARK   45  A    between atoms: _102  and  _105
REMARK   46  A    between atoms: _105  and  _106
REMARK   47  A    between atoms: _111  and  _113
REMARK   48  A    between atoms: _113  and  _114
REMARK   49  A    between atoms: _113  and  _116
REMARK   50  A    between atoms: _116  and  _117
REMARK   51  A    between atoms: _117  and  _118
REMARK   52  A    between atoms: _118  and  _119
REMARK   53  A    between atoms: _128  and  _130
REMARK   54  A    between atoms: _130  and  _131
REMARK   55  A    between atoms: _130  and  _133
REMARK   56  A    between atoms: _133  and  _134
REMARK   57  A    between atoms: _140  and  _142
REMARK   58  A    between atoms: _142  and  _143
REMARK   59  A    between atoms: _142  and  _145
REMARK   60  A    between atoms: _148  and  _150
REMARK   61  A    between atoms: _150  and  _151
REMARK   62  A    between atoms: _153  and  _155
REMARK   63  A    between atoms: _155  and  _156
REMARK   64  A    between atoms: _158  and  _160
REMARK   65  A    between atoms: _160  and  _161
REMARK   66  A    between atoms: _163  and  _165
REMARK   67  A    between atoms: _165  and  _166
REMARK   68  A    between atoms: _165  and  _168
REMARK   69  A    between atoms: _171  and  _173
REMARK   70  A    between atoms: _173  and  _174
REMARK   71  A    between atoms: _176  and  _178
REMARK   72  A    between atoms: _178  and  _179
REMARK   73  A    between atoms: _178  and  _181
REMARK   74  A    between atoms: _181  and  _182
REMARK   75  A    between atoms: _185  and  _187
REMARK   76  A    between atoms: _187  and  _188
REMARK   77  A    between atoms: _187  and  _190
REMARK   78  A    between atoms: _193  and  _195
REMARK   79  A    between atoms: _195  and  _196
REMARK   80  A    between atoms: _195  and  _198
REMARK   81  A    between atoms: _198  and  _199
REMARK   82  A    between atoms: _199  and  _200
REMARK   83  A    between atoms: _205  and  _207
REMARK   84  A    between atoms: _207  and  _208
REMARK   85  A    between atoms: _207  and  _210
REMARK   86  A    between atoms: _210  and  _211
REMARK   87  A    between atoms: _211  and  _212
REMARK   88  A    between atoms: _215  and  _217
REMARK   89  A    between atoms: _217  and  _218
REMARK   90  A    between atoms: _217  and  _220
REMARK   91  A    between atoms: _220  and  _221
REMARK   92  A    between atoms: _221  and  _222
REMARK   93  A    between atoms: _225  and  _227
REMARK   94  A    between atoms: _227  and  _228
REMARK   95  A    between atoms: _227  and  _230
REMARK   96  A    between atoms: _230  and  _231
REMARK   97  A    between atoms: _234  and  _236
REMARK   98  A    between atoms: _236  and  _237
REMARK   99  A    between atoms: _236  and  _239
REMARK  100  A    between atoms: _239  and  _240
REMARK  101  A    between atoms: _240  and  _241
REMARK  102  A    between atoms: _241  and  _242
REMARK  103  A    between atoms: _251  and  _253
REMARK  104  A    between atoms: _253  and  _254
REMARK  105  A    between atoms: _253  and  _256
REMARK  106  A    between atoms: _256  and  _257
REMARK  107  A    between atoms: _263  and  _265
REMARK  108  A    between atoms: _265  and  _266
REMARK  109  A    between atoms: _265  and  _268
REMARK  110  A    between atoms: _268  and  _269
REMARK  111  A    between atoms: _272  and  _274
REMARK  112  A    between atoms: _274  and  _275
REMARK  113  A    between atoms: _274  and  _277
REMARK  114  A    between atoms: _277  and  _278
REMARK  115  A    between atoms: _278  and  _279
REMARK  116  A    between atoms: _279  and  _280
REMARK  117  A    between atoms: _289  and  _291
REMARK  118  A    between atoms: _291  and  _292
REMARK  119  A    between atoms: _291  and  _294
REMARK  120  A    between atoms: _294  and  _295
REMARK  121  A    between atoms: _300  and  _301
REMARK  122  A    between atoms: _303  and  _305
REMARK  123  A    between atoms: _305  and  _306
REMARK  124  A    between atoms: _308  and  _310
REMARK  125  A    between atoms: _310  and  _311
REMARK  126  A    between atoms: _310  and  _313
REMARK  127  A    between atoms: _313  and  _314
REMARK  128  A    between atoms: _319  and  _320
REMARK  129  A    between atoms: _322  and  _324
REMARK  130  A    between atoms: _324  and  _325
REMARK  131  A    between atoms: _328  and  _330
REMARK  132  A    between atoms: _330  and  _331
REMARK  133  A    between atoms: _330  and  _333
REMARK  134  A    between atoms: _333  and  _334
REMARK  135  A    between atoms: _337  and  _339
REMARK  136  A    between atoms: _339  and  _340
REMARK  137  A    between atoms: _339  and  _342
REMARK  138  A    between atoms: _342  and  _343
REMARK  139  A    between atoms: _346  and  _348
REMARK  140  A    between atoms: _348  and  _349
REMARK  141  A    between atoms: _352  and  _354
REMARK  142  A    between atoms: _354  and  _355
REMARK  143  A    between atoms: _354  and  _357
REMARK  144  A    between atoms: _357  and  _358
REMARK  145  A    between atoms: _361  and  _363
REMARK  146  A    between atoms: _363  and  _364
REMARK  147  A    between atoms: _363  and  _366
REMARK  148  A    between atoms: _366  and  _367
REMARK  149  A    between atoms: _372  and  _374
REMARK  150  A    between atoms: _374  and  _375
REMARK  151  A    between atoms: _374  and  _377
REMARK  152  A    between atoms: _377  and  _378
REMARK  153  A    between atoms: _384  and  _386
REMARK  154  A    between atoms: _386  and  _387
REMARK  155  A    between atoms: _390  and  _392
REMARK  156  A    between atoms: _392  and  _393
REMARK  157  A    between atoms: _392  and  _395
REMARK  158  A    between atoms: _395  and  _396
REMARK  159  A    between atoms: _399  and  _401
REMARK  160  A    between atoms: _401  and  _402
REMARK  161  A    between atoms: _404  and  _406
REMARK  162  A    between atoms: _406  and  _407
REMARK  163  A    between atoms: _406  and  _409
REMARK  164  A    between atoms: _409  and  _410
REMARK  165  A    between atoms: _415  and  _417
REMARK  166  A    between atoms: _417  and  _418
REMARK  167  A    between atoms: _417  and  _420
REMARK  168  A    between atoms: _420  and  _421
REMARK  169  A    between atoms: _431  and  _433
REMARK  170  A    between atoms: _433  and  _434
REMARK  171  A    between atoms: _436  and  _438
REMARK  172  A    between atoms: _438  and  _439
REMARK  173  A    between atoms: _438  and  _441
REMARK  174  A    between atoms: _443  and  _445
REMARK  175  A    between atoms: _445  and  _446
REMARK  176  A    between atoms: _448  and  _450
REMARK  177  A    between atoms: _450  and  _451
REMARK  178  A    between atoms: _454  and  _456
REMARK  179  A    between atoms: _456  and  _457
REMARK  180  A    between atoms: _456  and  _459
REMARK  181  A    between atoms: _459  and  _460
REMARK  182  A    between atoms: _466  and  _468
REMARK  183  A    between atoms: _468  and  _469
REMARK  184  A    between atoms: _471  and  _473
REMARK  185  A    between atoms: _473  and  _474
REMARK  186  A    between atoms: _476  and  _478
REMARK  187  A    between atoms: _478  and  _479
REMARK  188  A    between atoms: _482  and  _484
REMARK  189  A    between atoms: _484  and  _485
REMARK  190  A    between atoms: _484  and  _487
REMARK  191  A    between atoms: _487  and  _488
REMARK  192  A    between atoms: _488  and  _489
REMARK  193  A    between atoms: _489  and  _490
REMARK  194  A    between atoms: _490  and  _491
REMARK  195  A    between atoms: _495  and  _497
REMARK  196  A    between atoms: _497  and  _498
REMARK  197  A    between atoms: _497  and  _500
REMARK  198  A    between atoms: _500  and  _501
REMARK  199  A    between atoms: _506  and  _507
REMARK  200  A    between atoms: _509  and  _511
REMARK  201  A    between atoms: _511  and  _512
REMARK  202  A    between atoms: _511  and  _514
REMARK  203  A    between atoms: _514  and  _515
REMARK  204  A    between atoms: _521  and  _523
REMARK  205  A    between atoms: _523  and  _524
REMARK  206  A    between atoms: _523  and  _526
REMARK  207  A    between atoms: _526  and  _527
REMARK  208  A    between atoms: _530  and  _532
REMARK  209  A    between atoms: _532  and  _533
REMARK  210  A    between atoms: _532  and  _535
REMARK  211  A    between atoms: _535  and  _536
REMARK  212  A    between atoms: _542  and  _544
REMARK  213  A    between atoms: _544  and  _545
REMARK  214  A    between atoms: _547  and  _549
REMARK  215  A    between atoms: _549  and  _550
REMARK  216  A    between atoms: _549  and  _552
REMARK  217  A    between atoms: _552  and  _553
REMARK  218  A    between atoms: _556  and  _558
REMARK  219  A    between atoms: _558  and  _559
REMARK  220  A    between atoms: _558  and  _561
REMARK  221  A    between atoms: _561  and  _562
REMARK                            x       y       z     vdW  Elec       q    Type
REMARK                         _______ _______ _______ _____ _____    ______ ____
ROOT
ATOM      1  O   HOH     1      19.577  -3.113  -7.610  0.00  0.00    +0.000 OA
ENDROOT
TORSDOF 0
REMARK  Name = ../refined-set-2016/4b1j/4b1j_pocket.pdb
REMARK  221 active torsions:
REMARK  status: ('A' for Active; 'I' for Inactive)
REMARK    1  A    between atoms: _1  and  _3
REMARK    2  A    between atoms: _3  and  _4
REMARK    3  A    between atoms: _3  and  _6
REMARK    4  A    between atoms: _6  and  _7
REMARK    5  A    between atoms: _7  and  _8
REMARK    6  A    between atoms: _11  and  _13
REMARK    7  A    between atoms: _13  and  _14
REMARK    8  A    between atoms: _16  and  _18
REMARK    9  A    between atoms: _18  and  _19
REMARK   10  A    between atoms: _18  and  _21
REMARK   11  A    between atoms: _21  and  _22
REMARK   12  A    between atoms: _25  and  _27
REMARK   13  A    between atoms: _27  and  _28
REMARK   14  A    between atoms: _27  and  _30
REMARK   15  A    between atoms: _30  and  _31
REMARK   16  A    between atoms: _34  and  _36
REMARK   17  A    between atoms: _36  and  _37
REMARK   18  A    between atoms: _36  and  _39
REMARK   19  A    between atoms: _39  and  _40
REMARK   20  A    between atoms: _40  and  _41
REMARK   21  A    between atoms: _44  and  _46
REMARK   22  A    between atoms: _46  and  _47
REMARK   23  A    between atoms: _46  and  _49
REMARK   24  A    between atoms: _49  and  _50
REMARK   25  A    between atoms: _50  and  _51
REMARK   26  A    between atoms: _54  and  _56
REMARK   27  A    between atoms: _56  and  _57
REMARK   28  A    between atoms: _56  and  _59
REMARK   29  A    between atoms: _59  and  _60
REMARK   30  A    between atoms: _65  and  _67
REMARK   31  A    between atoms: _67  and  _68
REMARK   32  A    between atoms: _67  and  _70
REMARK   33  A    between atoms: _73  and  _75
REMARK   34  A    between atoms: _75  and  _76
REMARK   35  A    between atoms: _75  and  _78
REMARK   36  A    between atoms: _78  and  _79
REMARK   37  A    between atoms: _82  and  _84
REMARK   38  A    between atoms: _84  and  _85
REMARK   39  A    between atoms: _84  and  _87
REMARK   40  A    between atoms: _87  and  _88
REMARK   41  A    between atoms: _94  and  _96
REMARK   42  A    between atoms: _96  and  _97
REMARK   43  A    between atoms: _100  and  _102
REMARK   44  A    between atoms: _102  and  _103
REMARK   45  A    between atoms: _102  and  _105
REMARK   46  A    between atoms: _105  and  _106
REMARK   47  A    between atoms: _111  and  _113
REMARK   48  A    between atoms: _113  and  _114
REMARK   49  A    between atoms: _113  and  _116
REMARK   50  A    between atoms: _116  and  _117
REMARK   51  A    between atoms: _117  and  _118
REMARK   52  A    between atoms: _118  and  _119
REMARK   53  A    between atoms: _128  and  _130
REMARK   54  A    between atoms: _130  and  _131
REMARK   55  A    between atoms: _130  and  _133
REMARK   56  A    between atoms: _133  and  _134
REMARK   57  A    between atoms: _140  and  _142
REMARK   58  A    between atoms: _142  and  _143
REMARK   59  A    between atoms: _142  and  _145
REMARK   60  A    between atoms: _148  and  _150
REMARK   61  A    between atoms: _150  and  _151
REMARK   62  A    between atoms: _153  and  _155
REMARK   63  A    between atoms: _155  and  _156
REMARK   64  A    between atoms: _158  and  _160
REMARK   65  A    between atoms: _160  and  _161
REMARK   66  A    between atoms: _163  and  _165
REMARK   67  A    between atoms: _165  and  _166
REMARK   68  A    between atoms: _165  and  _168
REMARK   69  A    between atoms: _171  and  _173
REMARK   70  A    between atoms: _173  and  _174
REMARK   71  A    between atoms: _176  and  _178
REMARK   72  A    between atoms: _178  and  _179
REMARK   73  A    between atoms: _178  and  _181
REMARK   74  A    between atoms: _181  and  _182
REMARK   75  A    between atoms: _185  and  _187
REMARK   76  A    between atoms: _187  and  _188
REMARK   77  A    between atoms: _187  and  _190
REMARK   78  A    between atoms: _193  and  _195
REMARK   79  A    between atoms: _195  and  _196
REMARK   80  A    between atoms: _195  and  _198
REMARK   81  A    between atoms: _198  and  _199
REMARK   82  A    between atoms: _199  and  _200
REMARK   83  A    between atoms: _205  and  _207
REMARK   84  A    between atoms: _207  and  _208
REMARK   85  A    between atoms: _207  and  _210
REMARK   86  A    between atoms: _210  and  _211
REMARK   87  A    between atoms: _211  and  _212
REMARK   88  A    between atoms: _215  and  _217
REMARK   89  A    between atoms: _217  and  _218
REMARK   90  A    between atoms: _217  and  _220
REMARK   91  A    between atoms: _220  and  _221
REMARK   92  A    between atoms: _221  and  _222
REMARK   93  A    between atoms: _225  and  _227
REMARK   94  A    between atoms: _227  and  _228
REMARK   95  A    between atoms: _227  and  _230
REMARK   96  A    between atoms: _230  and  _231
REMARK   97  A    between atoms: _234  and  _236
REMARK   98  A    between atoms: _236  and  _237
REMARK   99  A    between atoms: _236  and  _239
REMARK  100  A    between atoms: _239  and  _240
REMARK  101  A    between atoms: _240  and  _241
REMARK  102  A    between atoms: _241  and  _242
REMARK  103  A    between atoms: _251  and  _253
REMARK  104  A    between atoms: _253  and  _254
REMARK  105  A    between atoms: _253  and  _256
REMARK  106  A    between atoms: _256  and  _257
REMARK  107  A    between atoms: _263  and  _265
REMARK  108  A    between atoms: _265  and  _266
REMARK  109  A    between atoms: _265  and  _268
REMARK  110  A    between atoms: _268  and  _269
REMARK  111  A    between atoms: _272  and  _274
REMARK  112  A    between atoms: _274  and  _275
REMARK  113  A    between atoms: _274  and  _277
REMARK  114  A    between atoms: _277  and  _278
REMARK  115  A    between atoms: _278  and  _279
REMARK  116  A    between atoms: _279  and  _280
REMARK  117  A    between atoms: _289  and  _291
REMARK  118  A    between atoms: _291  and  _292
REMARK  119  A    between atoms: _291  and  _294
REMARK  120  A    between atoms: _294  and  _295
REMARK  121  A    between atoms: _300  and  _301
REMARK  122  A    between atoms: _303  and  _305
REMARK  123  A    between atoms: _305  and  _306
REMARK  124  A    between atoms: _308  and  _310
REMARK  125  A    between atoms: _310  and  _311
REMARK  126  A    between atoms: _310  and  _313
REMARK  127  A    between atoms: _313  and  _314
REMARK  128  A    between atoms: _319  and  _320
REMARK  129  A    between atoms: _322  and  _324
REMARK  130  A    between atoms: _324  and  _325
REMARK  131  A    between atoms: _328  and  _330
REMARK  132  A    between atoms: _330  and  _331
REMARK  133  A    between atoms: _330  and  _333
REMARK  134  A    between atoms: _333  and  _334
REMARK  135  A    between atoms: _337  and  _339
REMARK  136  A    between atoms: _339  and  _340
REMARK  137  A    between atoms: _339  and  _342
REMARK  138  A    between atoms: _342  and  _343
REMARK  139  A    between atoms: _346  and  _348
REMARK  140  A    between atoms: _348  and  _349
REMARK  141  A    between atoms: _352  and  _354
REMARK  142  A    between atoms: _354  and  _355
REMARK  143  A    between atoms: _354  and  _357
REMARK  144  A    between atoms: _357  and  _358
REMARK  145  A    between atoms: _361  and  _363
REMARK  146  A    between atoms: _363  and  _364
REMARK  147  A    between atoms: _363  and  _366
REMARK  148  A    between atoms: _366  and  _367
REMARK  149  A    between atoms: _372  and  _374
REMARK  150  A    between atoms: _374  and  _375
REMARK  151  A    between atoms: _374  and  _377
REMARK  152  A    between atoms: _377  and  _378
REMARK  153  A    between atoms: _384  and  _386
REMARK  154  A    between atoms: _386  and  _387
REMARK  155  A    between atoms: _390  and  _392
REMARK  156  A    between atoms: _392  and  _393
REMARK  157  A    between atoms: _392  and  _395
REMARK  158  A    between atoms: _395  and  _396
REMARK  159  A    between atoms: _399  and  _401
REMARK  160  A    between atoms: _401  and  _402
REMARK  161  A    between atoms: _404  and  _406
REMARK  162  A    between atoms: _406  and  _407
REMARK  163  A    between atoms: _406  and  _409
REMARK  164  A    between atoms: _409  and  _410
REMARK  165  A    between atoms: _415  and  _417
REMARK  166  A    between atoms: _417  and  _418
REMARK  167  A    between atoms: _417  and  _420
REMARK  168  A    between atoms: _420  and  _421
REMARK  169  A    between atoms: _431  and  _433
REMARK  170  A    between atoms: _433  and  _434
REMARK  171  A    between atoms: _436  and  _438
REMARK  172  A    between atoms: _438  and  _439
REMARK  173  A    between atoms: _438  and  _441
REMARK  174  A    between atoms: _443  and  _445
REMARK  175  A    between atoms: _445  and  _446
REMARK  176  A    between atoms: _448  and  _450
REMARK  177  A    between atoms: _450  and  _451
REMARK  178  A    between atoms: _454  and  _456
REMARK  179  A    between atoms: _456  and  _457
REMARK  180  A    between atoms: _456  and  _459
REMARK  181  A    between atoms: _459  and  _460
REMARK  182  A    between atoms: _466  and  _468
REMARK  183  A    between atoms: _468  and  _469
REMARK  184  A    between atoms: _471  and  _473
REMARK  185  A    between atoms: _473  and  _474
REMARK  186  A    between atoms: _476  and  _478
REMARK  187  A    between atoms: _478  and  _479
REMARK  188  A    between atoms: _482  and  _484
REMARK  189  A    between atoms: _484  and  _485
REMARK  190  A    between atoms: _484  and  _487
REMARK  191  A    between atoms: _487  and  _488
REMARK  192  A    between atoms: _488  and  _489
REMARK  193  A    between atoms: _489  and  _490
REMARK  194  A    between atoms: _490  and  _491
REMARK  195  A    between atoms: _495  and  _497
REMARK  196  A    between atoms: _497  and  _498
REMARK  197  A    between atoms: _497  and  _500
REMARK  198  A    between atoms: _500  and  _501
REMARK  199  A    between atoms: _506  and  _507
REMARK  200  A    between atoms: _509  and  _511
REMARK  201  A    between atoms: _511  and  _512
REMARK  202  A    between atoms: _511  and  _514
REMARK  203  A    between atoms: _514  and  _515
REMARK  204  A    between atoms: _521  and  _523
REMARK  205  A    between atoms: _523  and  _524
REMARK  206  A    between atoms: _523  and  _526
REMARK  207  A    between atoms: _526  and  _527
REMARK  208  A    between atoms: _530  and  _532
REMARK  209  A    between atoms: _532  and  _533
REMARK  210  A    between atoms: _532  and  _535
REMARK  211  A    between atoms: _535  and  _536
REMARK  212  A    between atoms: _542  and  _544
REMARK  213  A    between atoms: _544  and  _545
REMARK  214  A    between atoms: _547  and  _549
REMARK  215  A    between atoms: _549  and  _550
REMARK  216  A    between atoms: _549  and  _552
REMARK  217  A    between atoms: _552  and  _553
REMARK  218  A    between atoms: _556  and  _558
REMARK  219  A    between atoms: _558  and  _559
REMARK  220  A    between atoms: _558  and  _561
REMARK  221  A    between atoms: _561  and  _562
REMARK                            x       y       z     vdW  Elec       q    Type
REMARK                         _______ _______ _______ _____ _____    ______ ____
ROOT
ATOM      1  O   HOH     1      20.279  -1.599   0.798  0.00  0.00    +0.000 OA
ENDROOT
TORSDOF 0
REMARK  Name = ../refined-set-2016/4b1j/4b1j_pocket.pdb
REMARK  221 active torsions:
REMARK  status: ('A' for Active; 'I' for Inactive)
REMARK    1  A    between atoms: _1  and  _3
REMARK    2  A    between atoms: _3  and  _4
REMARK    3  A    between atoms: _3  and  _6
REMARK    4  A    between atoms: _6  and  _7
REMARK    5  A    between atoms: _7  and  _8
REMARK    6  A    between atoms: _11  and  _13
REMARK    7  A    between atoms: _13  and  _14
REMARK    8  A    between atoms: _16  and  _18
REMARK    9  A    between atoms: _18  and  _19
REMARK   10  A    between atoms: _18  and  _21
REMARK   11  A    between atoms: _21  and  _22
REMARK   12  A    between atoms: _25  and  _27
REMARK   13  A    between atoms: _27  and  _28
REMARK   14  A    between atoms: _27  and  _30
REMARK   15  A    between atoms: _30  and  _31
REMARK   16  A    between atoms: _34  and  _36
REMARK   17  A    between atoms: _36  and  _37
REMARK   18  A    between atoms: _36  and  _39
REMARK   19  A    between atoms: _39  and  _40
REMARK   20  A    between atoms: _40  and  _41
REMARK   21  A    between atoms: _44  and  _46
REMARK   22  A    between atoms: _46  and  _47
REMARK   23  A    between atoms: _46  and  _49
REMARK   24  A    between atoms: _49  and  _50
REMARK   25  A    between atoms: _50  and  _51
REMARK   26  A    between atoms: _54  and  _56
REMARK   27  A    between atoms: _56  and  _57
REMARK   28  A    between atoms: _56  and  _59
REMARK   29  A    between atoms: _59  and  _60
REMARK   30  A    between atoms: _65  and  _67
REMARK   31  A    between atoms: _67  and  _68
REMARK   32  A    between atoms: _67  and  _70
REMARK   33  A    between atoms: _73  and  _75
REMARK   34  A    between atoms: _75  and  _76
REMARK   35  A    between atoms: _75  and  _78
REMARK   36  A    between atoms: _78  and  _79
REMARK   37  A    between atoms: _82  and  _84
REMARK   38  A    between atoms: _84  and  _85
REMARK   39  A    between atoms: _84  and  _87
REMARK   40  A    between atoms: _87  and  _88
REMARK   41  A    between atoms: _94  and  _96
REMARK   42  A    between atoms: _96  and  _97
REMARK   43  A    between atoms: _100  and  _102
REMARK   44  A    between atoms: _102  and  _103
REMARK   45  A    between atoms: _102  and  _105
REMARK   46  A    between atoms: _105  and  _106
REMARK   47  A    between atoms: _111  and  _113
REMARK   48  A    between atoms: _113  and  _114
REMARK   49  A    between atoms: _113  and  _116
REMARK   50  A    between atoms: _116  and  _117
REMARK   51  A    between atoms: _117  and  _118
REMARK   52  A    between atoms: _118  and  _119
REMARK   53  A    between atoms: _128  and  _130
REMARK   54  A    between atoms: _130  and  _131
REMARK   55  A    between atoms: _130  and  _133
REMARK   56  A    between atoms: _133  and  _134
REMARK   57  A    between atoms: _140  and  _142
REMARK   58  A    between atoms: _142  and  _143
REMARK   59  A    between atoms: _142  and  _145
REMARK   60  A    between atoms: _148  and  _150
REMARK   61  A    between atoms: _150  and  _151
REMARK   62  A    between atoms: _153  and  _155
REMARK   63  A    between atoms: _155  and  _156
REMARK   64  A    between atoms: _158  and  _160
REMARK   65  A    between atoms: _160  and  _161
REMARK   66  A    between atoms: _163  and  _165
REMARK   67  A    between atoms: _165  and  _166
REMARK   68  A    between atoms: _165  and  _168
REMARK   69  A    between atoms: _171  and  _173
REMARK   70  A    between atoms: _173  and  _174
REMARK   71  A    between atoms: _176  and  _178
REMARK   72  A    between atoms: _178  and  _179
REMARK   73  A    between atoms: _178  and  _181
REMARK   74  A    between atoms: _181  and  _182
REMARK   75  A    between atoms: _185  and  _187
REMARK   76  A    between atoms: _187  and  _188
REMARK   77  A    between atoms: _187  and  _190
REMARK   78  A    between atoms: _193  and  _195
REMARK   79  A    between atoms: _195  and  _196
REMARK   80  A    between atoms: _195  and  _198
REMARK   81  A    between atoms: _198  and  _199
REMARK   82  A    between atoms: _199  and  _200
REMARK   83  A    between atoms: _205  and  _207
REMARK   84  A    between atoms: _207  and  _208
REMARK   85  A    between atoms: _207  and  _210
REMARK   86  A    between atoms: _210  and  _211
REMARK   87  A    between atoms: _211  and  _212
REMARK   88  A    between atoms: _215  and  _217
REMARK   89  A    between atoms: _217  and  _218
REMARK   90  A    between atoms: _217  and  _220
REMARK   91  A    between atoms: _220  and  _221
REMARK   92  A    between atoms: _221  and  _222
REMARK   93  A    between atoms: _225  and  _227
REMARK   94  A    between atoms: _227  and  _228
REMARK   95  A    between atoms: _227  and  _230
REMARK   96  A    between atoms: _230  and  _231
REMARK   97  A    between atoms: _234  and  _236
REMARK   98  A    between atoms: _236  and  _237
REMARK   99  A    between atoms: _236  and  _239
REMARK  100  A    between atoms: _239  and  _240
REMARK  101  A    between atoms: _240  and  _241
REMARK  102  A    between atoms: _241  and  _242
REMARK  103  A    between atoms: _251  and  _253
REMARK  104  A    between atoms: _253  and  _254
REMARK  105  A    between atoms: _253  and  _256
REMARK  106  A    between atoms: _256  and  _257
REMARK  107  A    between atoms: _263  and  _265
REMARK  108  A    between atoms: _265  and  _266
REMARK  109  A    between atoms: _265  and  _268
REMARK  110  A    between atoms: _268  and  _269
REMARK  111  A    between atoms: _272  and  _274
REMARK  112  A    between atoms: _274  and  _275
REMARK  113  A    between atoms: _274  and  _277
REMARK  114  A    between atoms: _277  and  _278
REMARK  115  A    between atoms: _278  and  _279
REMARK  116  A    between atoms: _279  and  _280
REMARK  117  A    between atoms: _289  and  _291
REMARK  118  A    between atoms: _291  and  _292
REMARK  119  A    between atoms: _291  and  _294
REMARK  120  A    between atoms: _294  and  _295
REMARK  121  A    between atoms: _300  and  _301
REMARK  122  A    between atoms: _303  and  _305
REMARK  123  A    between atoms: _305  and  _306
REMARK  124  A    between atoms: _308  and  _310
REMARK  125  A    between atoms: _310  and  _311
REMARK  126  A    between atoms: _310  and  _313
REMARK  127  A    between atoms: _313  and  _314
REMARK  128  A    between atoms: _319  and  _320
REMARK  129  A    between atoms: _322  and  _324
REMARK  130  A    between atoms: _324  and  _325
REMARK  131  A    between atoms: _328  and  _330
REMARK  132  A    between atoms: _330  and  _331
REMARK  133  A    between atoms: _330  and  _333
REMARK  134  A    between atoms: _333  and  _334
REMARK  135  A    between atoms: _337  and  _339
REMARK  136  A    between atoms: _339  and  _340
REMARK  137  A    between atoms: _339  and  _342
REMARK  138  A    between atoms: _342  and  _343
REMARK  139  A    between atoms: _346  and  _348
REMARK  140  A    between atoms: _348  and  _349
REMARK  141  A    between atoms: _352  and  _354
REMARK  142  A    between atoms: _354  and  _355
REMARK  143  A    between atoms: _354  and  _357
REMARK  144  A    between atoms: _357  and  _358
REMARK  145  A    between atoms: _361  and  _363
REMARK  146  A    between atoms: _363  and  _364
REMARK  147  A    between atoms: _363  and  _366
REMARK  148  A    between atoms: _366  and  _367
REMARK  149  A    between atoms: _372  and  _374
REMARK  150  A    between atoms: _374  and  _375
REMARK  151  A    between atoms: _374  and  _377
REMARK  152  A    between atoms: _377  and  _378
REMARK  153  A    between atoms: _384  and  _386
REMARK  154  A    between atoms: _386  and  _387
REMARK  155  A    between atoms: _390  and  _392
REMARK  156  A    between atoms: _392  and  _393
REMARK  157  A    between atoms: _392  and  _395
REMARK  158  A    between atoms: _395  and  _396
REMARK  159  A    between atoms: _399  and  _401
REMARK  160  A    between atoms: _401  and  _402
REMARK  161  A    between atoms: _404  and  _406
REMARK  162  A    between atoms: _406  and  _407
REMARK  163  A    between atoms: _406  and  _409
REMARK  164  A    between atoms: _409  and  _410
REMARK  165  A    between atoms: _415  and  _417
REMARK  166  A    between atoms: _417  and  _418
REMARK  167  A    between atoms: _417  and  _420
REMARK  168  A    between atoms: _420  and  _421
REMARK  169  A    between atoms: _431  and  _433
REMARK  170  A    between atoms: _433  and  _434
REMARK  171  A    between atoms: _436  and  _438
REMARK  172  A    between atoms: _438  and  _439
REMARK  173  A    between atoms: _438  and  _441
REMARK  174  A    between atoms: _443  and  _445
REMARK  175  A    between atoms: _445  and  _446
REMARK  176  A    between atoms: _448  and  _450
REMARK  177  A    between atoms: _450  and  _451
REMARK  178  A    between atoms: _454  and  _456
REMARK  179  A    between atoms: _456  and  _457
REMARK  180  A    between atoms: _456  and  _459
REMARK  181  A    between atoms: _459  and  _460
REMARK  182  A    between atoms: _466  and  _468
REMARK  183  A    between atoms: _468  and  _469
REMARK  184  A    between atoms: _471  and  _473
REMARK  185  A    between atoms: _473  and  _474
REMARK  186  A    between atoms: _476  and  _478
REMARK  187  A    between atoms: _478  and  _479
REMARK  188  A    between atoms: _482  and  _484
REMARK  189  A    between atoms: _484  and  _485
REMARK  190  A    between atoms: _484  and  _487
REMARK  191  A    between atoms: _487  and  _488
REMARK  192  A    between atoms: _488  and  _489
REMARK  193  A    between atoms: _489  and  _490
REMARK  194  A    between atoms: _490  and  _491
REMARK  195  A    between atoms: _495  and  _497
REMARK  196  A    between atoms: _497  and  _498
REMARK  197  A    between atoms: _497  and  _500
REMARK  198  A    between atoms: _500  and  _501
REMARK  199  A    between atoms: _506  and  _507
REMARK  200  A    between atoms: _509  and  _511
REMARK  201  A    between atoms: _511  and  _512
REMARK  202  A    between atoms: _511  and  _514
REMARK  203  A    between atoms: _514  and  _515
REMARK  204  A    between atoms: _521  and  _523
REMARK  205  A    between atoms: _523  and  _524
REMARK  206  A    between atoms: _523  and  _526
REMARK  207  A    between atoms: _526  and  _527
REMARK  208  A    between atoms: _530  and  _532
REMARK  209  A    between atoms: _532  and  _533
REMARK  210  A    between atoms: _532  and  _535
REMARK  211  A    between atoms: _535  and  _536
REMARK  212  A    between atoms: _542  and  _544
REMARK  213  A    between atoms: _544  and  _545
REMARK  214  A    between atoms: _547  and  _549
REMARK  215  A    between atoms: _549  and  _550
REMARK  216  A    between atoms: _549  and  _552
REMARK  217  A    between atoms: _552  and  _553
REMARK  218  A    between atoms: _556  and  _558
REMARK  219  A    between atoms: _558  and  _559
REMARK  220  A    between atoms: _558  and  _561
REMARK  221  A    between atoms: _561  and  _562
REMARK                            x       y       z     vdW  Elec       q    Type
REMARK                         _______ _______ _______ _____ _____    ______ ____
ROOT
ATOM      1  O   HOH     1      19.468  -0.449  -6.215  0.00  0.00    +0.000 OA
ENDROOT
TORSDOF 0
REMARK  Name = ../refined-set-2016/4b1j/4b1j_pocket.pdb
REMARK  221 active torsions:
REMARK  status: ('A' for Active; 'I' for Inactive)
REMARK    1  A    between atoms: _1  and  _3
REMARK    2  A    between atoms: _3  and  _4
REMARK    3  A    between atoms: _3  and  _6
REMARK    4  A    between atoms: _6  and  _7
REMARK    5  A    between atoms: _7  and  _8
REMARK    6  A    between atoms: _11  and  _13
REMARK    7  A    between atoms: _13  and  _14
REMARK    8  A    between atoms: _16  and  _18
REMARK    9  A    between atoms: _18  and  _19
REMARK   10  A    between atoms: _18  and  _21
REMARK   11  A    between atoms: _21  and  _22
REMARK   12  A    between atoms: _25  and  _27
REMARK   13  A    between atoms: _27  and  _28
REMARK   14  A    between atoms: _27  and  _30
REMARK   15  A    between atoms: _30  and  _31
REMARK   16  A    between atoms: _34  and  _36
REMARK   17  A    between atoms: _36  and  _37
REMARK   18  A    between atoms: _36  and  _39
REMARK   19  A    between atoms: _39  and  _40
REMARK   20  A    between atoms: _40  and  _41
REMARK   21  A    between atoms: _44  and  _46
REMARK   22  A    between atoms: _46  and  _47
REMARK   23  A    between atoms: _46  and  _49
REMARK   24  A    between atoms: _49  and  _50
REMARK   25  A    between atoms: _50  and  _51
REMARK   26  A    between atoms: _54  and  _56
REMARK   27  A    between atoms: _56  and  _57
REMARK   28  A    between atoms: _56  and  _59
REMARK   29  A    between atoms: _59  and  _60
REMARK   30  A    between atoms: _65  and  _67
REMARK   31  A    between atoms: _67  and  _68
REMARK   32  A    between atoms: _67  and  _70
REMARK   33  A    between atoms: _73  and  _75
REMARK   34  A    between atoms: _75  and  _76
REMARK   35  A    between atoms: _75  and  _78
REMARK   36  A    between atoms: _78  and  _79
REMARK   37  A    between atoms: _82  and  _84
REMARK   38  A    between atoms: _84  and  _85
REMARK   39  A    between atoms: _84  and  _87
REMARK   40  A    between atoms: _87  and  _88
REMARK   41  A    between atoms: _94  and  _96
REMARK   42  A    between atoms: _96  and  _97
REMARK   43  A    between atoms: _100  and  _102
REMARK   44  A    between atoms: _102  and  _103
REMARK   45  A    between atoms: _102  and  _105
REMARK   46  A    between atoms: _105  and  _106
REMARK   47  A    between atoms: _111  and  _113
REMARK   48  A    between atoms: _113  and  _114
REMARK   49  A    between atoms: _113  and  _116
REMARK   50  A    between atoms: _116  and  _117
REMARK   51  A    between atoms: _117  and  _118
REMARK   52  A    between atoms: _118  and  _119
REMARK   53  A    between atoms: _128  and  _130
REMARK   54  A    between atoms: _130  and  _131
REMARK   55  A    between atoms: _130  and  _133
REMARK   56  A    between atoms: _133  and  _134
REMARK   57  A    between atoms: _140  and  _142
REMARK   58  A    between atoms: _142  and  _143
REMARK   59  A    between atoms: _142  and  _145
REMARK   60  A    between atoms: _148  and  _150
REMARK   61  A    between atoms: _150  and  _151
REMARK   62  A    between atoms: _153  and  _155
REMARK   63  A    between atoms: _155  and  _156
REMARK   64  A    between atoms: _158  and  _160
REMARK   65  A    between atoms: _160  and  _161
REMARK   66  A    between atoms: _163  and  _165
REMARK   67  A    between atoms: _165  and  _166
REMARK   68  A    between atoms: _165  and  _168
REMARK   69  A    between atoms: _171  and  _173
REMARK   70  A    between atoms: _173  and  _174
REMARK   71  A    between atoms: _176  and  _178
REMARK   72  A    between atoms: _178  and  _179
REMARK   73  A    between atoms: _178  and  _181
REMARK   74  A    between atoms: _181  and  _182
REMARK   75  A    between atoms: _185  and  _187
REMARK   76  A    between atoms: _187  and  _188
REMARK   77  A    between atoms: _187  and  _190
REMARK   78  A    between atoms: _193  and  _195
REMARK   79  A    between atoms: _195  and  _196
REMARK   80  A    between atoms: _195  and  _198
REMARK   81  A    between atoms: _198  and  _199
REMARK   82  A    between atoms: _199  and  _200
REMARK   83  A    between atoms: _205  and  _207
REMARK   84  A    between atoms: _207  and  _208
REMARK   85  A    between atoms: _207  and  _210
REMARK   86  A    between atoms: _210  and  _211
REMARK   87  A    between atoms: _211  and  _212
REMARK   88  A    between atoms: _215  and  _217
REMARK   89  A    between atoms: _217  and  _218
REMARK   90  A    between atoms: _217  and  _220
REMARK   91  A    between atoms: _220  and  _221
REMARK   92  A    between atoms: _221  and  _222
REMARK   93  A    between atoms: _225  and  _227
REMARK   94  A    between atoms: _227  and  _228
REMARK   95  A    between atoms: _227  and  _230
REMARK   96  A    between atoms: _230  and  _231
REMARK   97  A    between atoms: _234  and  _236
REMARK   98  A    between atoms: _236  and  _237
REMARK   99  A    between atoms: _236  and  _239
REMARK  100  A    between atoms: _239  and  _240
REMARK  101  A    between atoms: _240  and  _241
REMARK  102  A    between atoms: _241  and  _242
REMARK  103  A    between atoms: _251  and  _253
REMARK  104  A    between atoms: _253  and  _254
REMARK  105  A    between atoms: _253  and  _256
REMARK  106  A    between atoms: _256  and  _257
REMARK  107  A    between atoms: _263  and  _265
REMARK  108  A    between atoms: _265  and  _266
REMARK  109  A    between atoms: _265  and  _268
REMARK  110  A    between atoms: _268  and  _269
REMARK  111  A    between atoms: _272  and  _274
REMARK  112  A    between atoms: _274  and  _275
REMARK  113  A    between atoms: _274  and  _277
REMARK  114  A    between atoms: _277  and  _278
REMARK  115  A    between atoms: _278  and  _279
REMARK  116  A    between atoms: _279  and  _280
REMARK  117  A    between atoms: _289  and  _291
REMARK  118  A    between atoms: _291  and  _292
REMARK  119  A    between atoms: _291  and  _294
REMARK  120  A    between atoms: _294  and  _295
REMARK  121  A    between atoms: _300  and  _301
REMARK  122  A    between atoms: _303  and  _305
REMARK  123  A    between atoms: _305  and  _306
REMARK  124  A    between atoms: _308  and  _310
REMARK  125  A    between atoms: _310  and  _311
REMARK  126  A    between atoms: _310  and  _313
REMARK  127  A    between atoms: _313  and  _314
REMARK  128  A    between atoms: _319  and  _320
REMARK  129  A    between atoms: _322  and  _324
REMARK  130  A    between atoms: _324  and  _325
REMARK  131  A    between atoms: _328  and  _330
REMARK  132  A    between atoms: _330  and  _331
REMARK  133  A    between atoms: _330  and  _333
REMARK  134  A    between atoms: _333  and  _334
REMARK  135  A    between atoms: _337  and  _339
REMARK  136  A    between atoms: _339  and  _340
REMARK  137  A    between atoms: _339  and  _342
REMARK  138  A    between atoms: _342  and  _343
REMARK  139  A    between atoms: _346  and  _348
REMARK  140  A    between atoms: _348  and  _349
REMARK  141  A    between atoms: _352  and  _354
REMARK  142  A    between atoms: _354  and  _355
REMARK  143  A    between atoms: _354  and  _357
REMARK  144  A    between atoms: _357  and  _358
REMARK  145  A    between atoms: _361  and  _363
REMARK  146  A    between atoms: _363  and  _364
REMARK  147  A    between atoms: _363  and  _366
REMARK  148  A    between atoms: _366  and  _367
REMARK  149  A    between atoms: _372  and  _374
REMARK  150  A    between atoms: _374  and  _375
REMARK  151  A    between atoms: _374  and  _377
REMARK  152  A    between atoms: _377  and  _378
REMARK  153  A    between atoms: _384  and  _386
REMARK  154  A    between atoms: _386  and  _387
REMARK  155  A    between atoms: _390  and  _392
REMARK  156  A    between atoms: _392  and  _393
REMARK  157  A    between atoms: _392  and  _395
REMARK  158  A    between atoms: _395  and  _396
REMARK  159  A    between atoms: _399  and  _401
REMARK  160  A    between atoms: _401  and  _402
REMARK  161  A    between atoms: _404  and  _406
REMARK  162  A    between atoms: _406  and  _407
REMARK  163  A    between atoms: _406  and  _409
REMARK  164  A    between atoms: _409  and  _410
REMARK  165  A    between atoms: _415  and  _417
REMARK  166  A    between atoms: _417  and  _418
REMARK  167  A    between atoms: _417  and  _420
REMARK  168  A    between atoms: _420  and  _421
REMARK  169  A    between atoms: _431  and  _433
REMARK  170  A    between atoms: _433  and  _434
REMARK  171  A    between atoms: _436  and  _438
REMARK  172  A    between atoms: _438  and  _439
REMARK  173  A    between atoms: _438  and  _441
REMARK  174  A    between atoms: _443  and  _445
REMARK  175  A    between atoms: _445  and  _446
REMARK  176  A    between atoms: _448  and  _450
REMARK  177  A    between atoms: _450  and  _451
REMARK  178  A    between atoms: _454  and  _456
REMARK  179  A    between atoms: _456  and  _457
REMARK  180  A    between atoms: _456  and  _459
REMARK  181  A    between atoms: _459  and  _460
REMARK  182  A    between atoms: _466  and  _468
REMARK  183  A    between atoms: _468  and  _469
REMARK  184  A    between atoms: _471  and  _473
REMARK  185  A    between atoms: _473  and  _474
REMARK  186  A    between atoms: _476  and  _478
REMARK  187  A    between atoms: _478  and  _479
REMARK  188  A    between atoms: _482  and  _484
REMARK  189  A    between atoms: _484  and  _485
REMARK  190  A    between atoms: _484  and  _487
REMARK  191  A    between atoms: _487  and  _488
REMARK  192  A    between atoms: _488  and  _489
REMARK  193  A    between atoms: _489  and  _490
REMARK  194  A    between atoms: _490  and  _491
REMARK  195  A    between atoms: _495  and  _497
REMARK  196  A    between atoms: _497  and  _498
REMARK  197  A    between atoms: _497  and  _500
REMARK  198  A    between atoms: _500  and  _501
REMARK  199  A    between atoms: _506  and  _507
REMARK  200  A    between atoms: _509  and  _511
REMARK  201  A    between atoms: _511  and  _512
REMARK  202  A    between atoms: _511  and  _514
REMARK  203  A    between atoms: _514  and  _515
REMARK  204  A    between atoms: _521  and  _523
REMARK  205  A    between atoms: _523  and  _524
REMARK  206  A    between atoms: _523  and  _526
REMARK  207  A    between atoms: _526  and  _527
REMARK  208  A    between atoms: _530  and  _532
REMARK  209  A    between atoms: _532  and  _533
REMARK  210  A    between atoms: _532  and  _535
REMARK  211  A    between atoms: _535  and  _536
REMARK  212  A    between atoms: _542  and  _544
REMARK  213  A    between atoms: _544  and  _545
REMARK  214  A    between atoms: _547  and  _549
REMARK  215  A    between atoms: _549  and  _550
REMARK  216  A    between atoms: _549  and  _552
REMARK  217  A    between atoms: _552  and  _553
REMARK  218  A    between atoms: _556  and  _558
REMARK  219  A    between atoms: _558  and  _559
REMARK  220  A    between atoms: _558  and  _561
REMARK  221  A    between atoms: _561  and  _562
REMARK                            x       y       z     vdW  Elec       q    Type
REMARK                         _______ _______ _______ _____ _____    ______ ____
ROOT
ATOM      1  O   HOH     1      19.106  -2.001   3.091  0.00  0.00    +0.000 OA
ENDROOT
TORSDOF 0
REMARK  Name = ../refined-set-2016/4b1j/4b1j_pocket.pdb
REMARK  221 active torsions:
REMARK  status: ('A' for Active; 'I' for Inactive)
REMARK    1  A    between atoms: _1  and  _3
REMARK    2  A    between atoms: _3  and  _4
REMARK    3  A    between atoms: _3  and  _6
REMARK    4  A    between atoms: _6  and  _7
REMARK    5  A    between atoms: _7  and  _8
REMARK    6  A    between atoms: _11  and  _13
REMARK    7  A    between atoms: _13  and  _14
REMARK    8  A    between atoms: _16  and  _18
REMARK    9  A    between atoms: _18  and  _19
REMARK   10  A    between atoms: _18  and  _21
REMARK   11  A    between atoms: _21  and  _22
REMARK   12  A    between atoms: _25  and  _27
REMARK   13  A    between atoms: _27  and  _28
REMARK   14  A    between atoms: _27  and  _30
REMARK   15  A    between atoms: _30  and  _31
REMARK   16  A    between atoms: _34  and  _36
REMARK   17  A    between atoms: _36  and  _37
REMARK   18  A    between atoms: _36  and  _39
REMARK   19  A    between atoms: _39  and  _40
REMARK   20  A    between atoms: _40  and  _41
REMARK   21  A    between atoms: _44  and  _46
REMARK   22  A    between atoms: _46  and  _47
REMARK   23  A    between atoms: _46  and  _49
REMARK   24  A    between atoms: _49  and  _50
REMARK   25  A    between atoms: _50  and  _51
REMARK   26  A    between atoms: _54  and  _56
REMARK   27  A    between atoms: _56  and  _57
REMARK   28  A    between atoms: _56  and  _59
REMARK   29  A    between atoms: _59  and  _60
REMARK   30  A    between atoms: _65  and  _67
REMARK   31  A    between atoms: _67  and  _68
REMARK   32  A    between atoms: _67  and  _70
REMARK   33  A    between atoms: _73  and  _75
REMARK   34  A    between atoms: _75  and  _76
REMARK   35  A    between atoms: _75  and  _78
REMARK   36  A    between atoms: _78  and  _79
REMARK   37  A    between atoms: _82  and  _84
REMARK   38  A    between atoms: _84  and  _85
REMARK   39  A    between atoms: _84  and  _87
REMARK   40  A    between atoms: _87  and  _88
REMARK   41  A    between atoms: _94  and  _96
REMARK   42  A    between atoms: _96  and  _97
REMARK   43  A    between atoms: _100  and  _102
REMARK   44  A    between atoms: _102  and  _103
REMARK   45  A    between atoms: _102  and  _105
REMARK   46  A    between atoms: _105  and  _106
REMARK   47  A    between atoms: _111  and  _113
REMARK   48  A    between atoms: _113  and  _114
REMARK   49  A    between atoms: _113  and  _116
REMARK   50  A    between atoms: _116  and  _117
REMARK   51  A    between atoms: _117  and  _118
REMARK   52  A    between atoms: _118  and  _119
REMARK   53  A    between atoms: _128  and  _130
REMARK   54  A    between atoms: _130  and  _131
REMARK   55  A    between atoms: _130  and  _133
REMARK   56  A    between atoms: _133  and  _134
REMARK   57  A    between atoms: _140  and  _142
REMARK   58  A    between atoms: _142  and  _143
REMARK   59  A    between atoms: _142  and  _145
REMARK   60  A    between atoms: _148  and  _150
REMARK   61  A    between atoms: _150  and  _151
REMARK   62  A    between atoms: _153  and  _155
REMARK   63  A    between atoms: _155  and  _156
REMARK   64  A    between atoms: _158  and  _160
REMARK   65  A    between atoms: _160  and  _161
REMARK   66  A    between atoms: _163  and  _165
REMARK   67  A    between atoms: _165  and  _166
REMARK   68  A    between atoms: _165  and  _168
REMARK   69  A    between atoms: _171  and  _173
REMARK   70  A    between atoms: _173  and  _174
REMARK   71  A    between atoms: _176  and  _178
REMARK   72  A    between atoms: _178  and  _179
REMARK   73  A    between atoms: _178  and  _181
REMARK   74  A    between atoms: _181  and  _182
REMARK   75  A    between atoms: _185  and  _187
REMARK   76  A    between atoms: _187  and  _188
REMARK   77  A    between atoms: _187  and  _190
REMARK   78  A    between atoms: _193  and  _195
REMARK   79  A    between atoms: _195  and  _196
REMARK   80  A    between atoms: _195  and  _198
REMARK   81  A    between atoms: _198  and  _199
REMARK   82  A    between atoms: _199  and  _200
REMARK   83  A    between atoms: _205  and  _207
REMARK   84  A    between atoms: _207  and  _208
REMARK   85  A    between atoms: _207  and  _210
REMARK   86  A    between atoms: _210  and  _211
REMARK   87  A    between atoms: _211  and  _212
REMARK   88  A    between atoms: _215  and  _217
REMARK   89  A    between atoms: _217  and  _218
REMARK   90  A    between atoms: _217  and  _220
REMARK   91  A    between atoms: _220  and  _221
REMARK   92  A    between atoms: _221  and  _222
REMARK   93  A    between atoms: _225  and  _227
REMARK   94  A    between atoms: _227  and  _228
REMARK   95  A    between atoms: _227  and  _230
REMARK   96  A    between atoms: _230  and  _231
REMARK   97  A    between atoms: _234  and  _236
REMARK   98  A    between atoms: _236  and  _237
REMARK   99  A    between atoms: _236  and  _239
REMARK  100  A    between atoms: _239  and  _240
REMARK  101  A    between atoms: _240  and  _241
REMARK  102  A    between atoms: _241  and  _242
REMARK  103  A    between atoms: _251  and  _253
REMARK  104  A    between atoms: _253  and  _254
REMARK  105  A    between atoms: _253  and  _256
REMARK  106  A    between atoms: _256  and  _257
REMARK  107  A    between atoms: _263  and  _265
REMARK  108  A    between atoms: _265  and  _266
REMARK  109  A    between atoms: _265  and  _268
REMARK  110  A    between atoms: _268  and  _269
REMARK  111  A    between atoms: _272  and  _274
REMARK  112  A    between atoms: _274  and  _275
REMARK  113  A    between atoms: _274  and  _277
REMARK  114  A    between atoms: _277  and  _278
REMARK  115  A    between atoms: _278  and  _279
REMARK  116  A    between atoms: _279  and  _280
REMARK  117  A    between atoms: _289  and  _291
REMARK  118  A    between atoms: _291  and  _292
REMARK  119  A    between atoms: _291  and  _294
REMARK  120  A    between atoms: _294  and  _295
REMARK  121  A    between atoms: _300  and  _301
REMARK  122  A    between atoms: _303  and  _305
REMARK  123  A    between atoms: _305  and  _306
REMARK  124  A    between atoms: _308  and  _310
REMARK  125  A    between atoms: _310  and  _311
REMARK  126  A    between atoms: _310  and  _313
REMARK  127  A    between atoms: _313  and  _314
REMARK  128  A    between atoms: _319  and  _320
REMARK  129  A    between atoms: _322  and  _324
REMARK  130  A    between atoms: _324  and  _325
REMARK  131  A    between atoms: _328  and  _330
REMARK  132  A    between atoms: _330  and  _331
REMARK  133  A    between atoms: _330  and  _333
REMARK  134  A    between atoms: _333  and  _334
REMARK  135  A    between atoms: _337  and  _339
REMARK  136  A    between atoms: _339  and  _340
REMARK  137  A    between atoms: _339  and  _342
REMARK  138  A    between atoms: _342  and  _343
REMARK  139  A    between atoms: _346  and  _348
REMARK  140  A    between atoms: _348  and  _349
REMARK  141  A    between atoms: _352  and  _354
REMARK  142  A    between atoms: _354  and  _355
REMARK  143  A    between atoms: _354  and  _357
REMARK  144  A    between atoms: _357  and  _358
REMARK  145  A    between atoms: _361  and  _363
REMARK  146  A    between atoms: _363  and  _364
REMARK  147  A    between atoms: _363  and  _366
REMARK  148  A    between atoms: _366  and  _367
REMARK  149  A    between atoms: _372  and  _374
REMARK  150  A    between atoms: _374  and  _375
REMARK  151  A    between atoms: _374  and  _377
REMARK  152  A    between atoms: _377  and  _378
REMARK  153  A    between atoms: _384  and  _386
REMARK  154  A    between atoms: _386  and  _387
REMARK  155  A    between atoms: _390  and  _392
REMARK  156  A    between atoms: _392  and  _393
REMARK  157  A    between atoms: _392  and  _395
REMARK  158  A    between atoms: _395  and  _396
REMARK  159  A    between atoms: _399  and  _401
REMARK  160  A    between atoms: _401  and  _402
REMARK  161  A    between atoms: _404  and  _406
REMARK  162  A    between atoms: _406  and  _407
REMARK  163  A    between atoms: _406  and  _409
REMARK  164  A    between atoms: _409  and  _410
REMARK  165  A    between atoms: _415  and  _417
REMARK  166  A    between atoms: _417  and  _418
REMARK  167  A    between atoms: _417  and  _420
REMARK  168  A    between atoms: _420  and  _421
REMARK  169  A    between atoms: _431  and  _433
REMARK  170  A    between atoms: _433  and  _434
REMARK  171  A    between atoms: _436  and  _438
REMARK  172  A    between atoms: _438  and  _439
REMARK  173  A    between atoms: _438  and  _441
REMARK  174  A    between atoms: _443  and  _445
REMARK  175  A    between atoms: _445  and  _446
REMARK  176  A    between atoms: _448  and  _450
REMARK  177  A    between atoms: _450  and  _451
REMARK  178  A    between atoms: _454  and  _456
REMARK  179  A    between atoms: _456  and  _457
REMARK  180  A    between atoms: _456  and  _459
REMARK  181  A    between atoms: _459  and  _460
REMARK  182  A    between atoms: _466  and  _468
REMARK  183  A    between atoms: _468  and  _469
REMARK  184  A    between atoms: _471  and  _473
REMARK  185  A    between atoms: _473  and  _474
REMARK  186  A    between atoms: _476  and  _478
REMARK  187  A    between atoms: _478  and  _479
REMARK  188  A    between atoms: _482  and  _484
REMARK  189  A    between atoms: _484  and  _485
REMARK  190  A    between atoms: _484  and  _487
REMARK  191  A    between atoms: _487  and  _488
REMARK  192  A    between atoms: _488  and  _489
REMARK  193  A    between atoms: _489  and  _490
REMARK  194  A    between atoms: _490  and  _491
REMARK  195  A    between atoms: _495  and  _497
REMARK  196  A    between atoms: _497  and  _498
REMARK  197  A    between atoms: _497  and  _500
REMARK  198  A    between atoms: _500  and  _501
REMARK  199  A    between atoms: _506  and  _507
REMARK  200  A    between atoms: _509  and  _511
REMARK  201  A    between atoms: _511  and  _512
REMARK  202  A    between atoms: _511  and  _514
REMARK  203  A    between atoms: _514  and  _515
REMARK  204  A    between atoms: _521  and  _523
REMARK  205  A    between atoms: _523  and  _524
REMARK  206  A    between atoms: _523  and  _526
REMARK  207  A    between atoms: _526  and  _527
REMARK  208  A    between atoms: _530  and  _532
REMARK  209  A    between atoms: _532  and  _533
REMARK  210  A    between atoms: _532  and  _535
REMARK  211  A    between atoms: _535  and  _536
REMARK  212  A    between atoms: _542  and  _544
REMARK  213  A    between atoms: _544  and  _545
REMARK  214  A    between atoms: _547  and  _549
REMARK  215  A    between atoms: _549  and  _550
REMARK  216  A    between atoms: _549  and  _552
REMARK  217  A    between atoms: _552  and  _553
REMARK  218  A    between atoms: _556  and  _558
REMARK  219  A    between atoms: _558  and  _559
REMARK  220  A    between atoms: _558  and  _561
REMARK  221  A    between atoms: _561  and  _562
REMARK                            x       y       z     vdW  Elec       q    Type
REMARK                         _______ _______ _______ _____ _____    ______ ____
ROOT
ATOM      1  O   HOH     1      26.318   1.407   5.847  0.00  0.00    +0.000 OA
ENDROOT
TORSDOF 0
REMARK  Name = ../refined-set-2016/4b1j/4b1j_pocket.pdb
REMARK  221 active torsions:
REMARK  status: ('A' for Active; 'I' for Inactive)
REMARK    1  A    between atoms: _1  and  _3
REMARK    2  A    between atoms: _3  and  _4
REMARK    3  A    between atoms: _3  and  _6
REMARK    4  A    between atoms: _6  and  _7
REMARK    5  A    between atoms: _7  and  _8
REMARK    6  A    between atoms: _11  and  _13
REMARK    7  A    between atoms: _13  and  _14
REMARK    8  A    between atoms: _16  and  _18
REMARK    9  A    between atoms: _18  and  _19
REMARK   10  A    between atoms: _18  and  _21
REMARK   11  A    between atoms: _21  and  _22
REMARK   12  A    between atoms: _25  and  _27
REMARK   13  A    between atoms: _27  and  _28
REMARK   14  A    between atoms: _27  and  _30
REMARK   15  A    between atoms: _30  and  _31
REMARK   16  A    between atoms: _34  and  _36
REMARK   17  A    between atoms: _36  and  _37
REMARK   18  A    between atoms: _36  and  _39
REMARK   19  A    between atoms: _39  and  _40
REMARK   20  A    between atoms: _40  and  _41
REMARK   21  A    between atoms: _44  and  _46
REMARK   22  A    between atoms: _46  and  _47
REMARK   23  A    between atoms: _46  and  _49
REMARK   24  A    between atoms: _49  and  _50
REMARK   25  A    between atoms: _50  and  _51
REMARK   26  A    between atoms: _54  and  _56
REMARK   27  A    between atoms: _56  and  _57
REMARK   28  A    between atoms: _56  and  _59
REMARK   29  A    between atoms: _59  and  _60
REMARK   30  A    between atoms: _65  and  _67
REMARK   31  A    between atoms: _67  and  _68
REMARK   32  A    between atoms: _67  and  _70
REMARK   33  A    between atoms: _73  and  _75
REMARK   34  A    between atoms: _75  and  _76
REMARK   35  A    between atoms: _75  and  _78
REMARK   36  A    between atoms: _78  and  _79
REMARK   37  A    between atoms: _82  and  _84
REMARK   38  A    between atoms: _84  and  _85
REMARK   39  A    between atoms: _84  and  _87
REMARK   40  A    between atoms: _87  and  _88
REMARK   41  A    between atoms: _94  and  _96
REMARK   42  A    between atoms: _96  and  _97
REMARK   43  A    between atoms: _100  and  _102
REMARK   44  A    between atoms: _102  and  _103
REMARK   45  A    between atoms: _102  and  _105
REMARK   46  A    between atoms: _105  and  _106
REMARK   47  A    between atoms: _111  and  _113
REMARK   48  A    between atoms: _113  and  _114
REMARK   49  A    between atoms: _113  and  _116
REMARK   50  A    between atoms: _116  and  _117
REMARK   51  A    between atoms: _117  and  _118
REMARK   52  A    between atoms: _118  and  _119
REMARK   53  A    between atoms: _128  and  _130
REMARK   54  A    between atoms: _130  and  _131
REMARK   55  A    between atoms: _130  and  _133
REMARK   56  A    between atoms: _133  and  _134
REMARK   57  A    between atoms: _140  and  _142
REMARK   58  A    between atoms: _142  and  _143
REMARK   59  A    between atoms: _142  and  _145
REMARK   60  A    between atoms: _148  and  _150
REMARK   61  A    between atoms: _150  and  _151
REMARK   62  A    between atoms: _153  and  _155
REMARK   63  A    between atoms: _155  and  _156
REMARK   64  A    between atoms: _158  and  _160
REMARK   65  A    between atoms: _160  and  _161
REMARK   66  A    between atoms: _163  and  _165
REMARK   67  A    between atoms: _165  and  _166
REMARK   68  A    between atoms: _165  and  _168
REMARK   69  A    between atoms: _171  and  _173
REMARK   70  A    between atoms: _173  and  _174
REMARK   71  A    between atoms: _176  and  _178
REMARK   72  A    between atoms: _178  and  _179
REMARK   73  A    between atoms: _178  and  _181
REMARK   74  A    between atoms: _181  and  _182
REMARK   75  A    between atoms: _185  and  _187
REMARK   76  A    between atoms: _187  and  _188
REMARK   77  A    between atoms: _187  and  _190
REMARK   78  A    between atoms: _193  and  _195
REMARK   79  A    between atoms: _195  and  _196
REMARK   80  A    between atoms: _195  and  _198
REMARK   81  A    between atoms: _198  and  _199
REMARK   82  A    between atoms: _199  and  _200
REMARK   83  A    between atoms: _205  and  _207
REMARK   84  A    between atoms: _207  and  _208
REMARK   85  A    between atoms: _207  and  _210
REMARK   86  A    between atoms: _210  and  _211
REMARK   87  A    between atoms: _211  and  _212
REMARK   88  A    between atoms: _215  and  _217
REMARK   89  A    between atoms: _217  and  _218
REMARK   90  A    between atoms: _217  and  _220
REMARK   91  A    between atoms: _220  and  _221
REMARK   92  A    between atoms: _221  and  _222
REMARK   93  A    between atoms: _225  and  _227
REMARK   94  A    between atoms: _227  and  _228
REMARK   95  A    between atoms: _227  and  _230
REMARK   96  A    between atoms: _230  and  _231
REMARK   97  A    between atoms: _234  and  _236
REMARK   98  A    between atoms: _236  and  _237
REMARK   99  A    between atoms: _236  and  _239
REMARK  100  A    between atoms: _239  and  _240
REMARK  101  A    between atoms: _240  and  _241
REMARK  102  A    between atoms: _241  and  _242
REMARK  103  A    between atoms: _251  and  _253
REMARK  104  A    between atoms: _253  and  _254
REMARK  105  A    between atoms: _253  and  _256
REMARK  106  A    between atoms: _256  and  _257
REMARK  107  A    between atoms: _263  and  _265
REMARK  108  A    between atoms: _265  and  _266
REMARK  109  A    between atoms: _265  and  _268
REMARK  110  A    between atoms: _268  and  _269
REMARK  111  A    between atoms: _272  and  _274
REMARK  112  A    between atoms: _274  and  _275
REMARK  113  A    between atoms: _274  and  _277
REMARK  114  A    between atoms: _277  and  _278
REMARK  115  A    between atoms: _278  and  _279
REMARK  116  A    between atoms: _279  and  _280
REMARK  117  A    between atoms: _289  and  _291
REMARK  118  A    between atoms: _291  and  _292
REMARK  119  A    between atoms: _291  and  _294
REMARK  120  A    between atoms: _294  and  _295
REMARK  121  A    between atoms: _300  and  _301
REMARK  122  A    between atoms: _303  and  _305
REMARK  123  A    between atoms: _305  and  _306
REMARK  124  A    between atoms: _308  and  _310
REMARK  125  A    between atoms: _310  and  _311
REMARK  126  A    between atoms: _310  and  _313
REMARK  127  A    between atoms: _313  and  _314
REMARK  128  A    between atoms: _319  and  _320
REMARK  129  A    between atoms: _322  and  _324
REMARK  130  A    between atoms: _324  and  _325
REMARK  131  A    between atoms: _328  and  _330
REMARK  132  A    between atoms: _330  and  _331
REMARK  133  A    between atoms: _330  and  _333
REMARK  134  A    between atoms: _333  and  _334
REMARK  135  A    between atoms: _337  and  _339
REMARK  136  A    between atoms: _339  and  _340
REMARK  137  A    between atoms: _339  and  _342
REMARK  138  A    between atoms: _342  and  _343
REMARK  139  A    between atoms: _346  and  _348
REMARK  140  A    between atoms: _348  and  _349
REMARK  141  A    between atoms: _352  and  _354
REMARK  142  A    between atoms: _354  and  _355
REMARK  143  A    between atoms: _354  and  _357
REMARK  144  A    between atoms: _357  and  _358
REMARK  145  A    between atoms: _361  and  _363
REMARK  146  A    between atoms: _363  and  _364
REMARK  147  A    between atoms: _363  and  _366
REMARK  148  A    between atoms: _366  and  _367
REMARK  149  A    between atoms: _372  and  _374
REMARK  150  A    between atoms: _374  and  _375
REMARK  151  A    between atoms: _374  and  _377
REMARK  152  A    between atoms: _377  and  _378
REMARK  153  A    between atoms: _384  and  _386
REMARK  154  A    between atoms: _386  and  _387
REMARK  155  A    between atoms: _390  and  _392
REMARK  156  A    between atoms: _392  and  _393
REMARK  157  A    between atoms: _392  and  _395
REMARK  158  A    between atoms: _395  and  _396
REMARK  159  A    between atoms: _399  and  _401
REMARK  160  A    between atoms: _401  and  _402
REMARK  161  A    between atoms: _404  and  _406
REMARK  162  A    between atoms: _406  and  _407
REMARK  163  A    between atoms: _406  and  _409
REMARK  164  A    between atoms: _409  and  _410
REMARK  165  A    between atoms: _415  and  _417
REMARK  166  A    between atoms: _417  and  _418
REMARK  167  A    between atoms: _417  and  _420
REMARK  168  A    between atoms: _420  and  _421
REMARK  169  A    between atoms: _431  and  _433
REMARK  170  A    between atoms: _433  and  _434
REMARK  171  A    between atoms: _436  and  _438
REMARK  172  A    between atoms: _438  and  _439
REMARK  173  A    between atoms: _438  and  _441
REMARK  174  A    between atoms: _443  and  _445
REMARK  175  A    between atoms: _445  and  _446
REMARK  176  A    between atoms: _448  and  _450
REMARK  177  A    between atoms: _450  and  _451
REMARK  178  A    between atoms: _454  and  _456
REMARK  179  A    between atoms: _456  and  _457
REMARK  180  A    between atoms: _456  and  _459
REMARK  181  A    between atoms: _459  and  _460
REMARK  182  A    between atoms: _466  and  _468
REMARK  183  A    between atoms: _468  and  _469
REMARK  184  A    between atoms: _471  and  _473
REMARK  185  A    between atoms: _473  and  _474
REMARK  186  A    between atoms: _476  and  _478
REMARK  187  A    between atoms: _478  and  _479
REMARK  188  A    between atoms: _482  and  _484
REMARK  189  A    between atoms: _484  and  _485
REMARK  190  A    between atoms: _484  and  _487
REMARK  191  A    between atoms: _487  and  _488
REMARK  192  A    between atoms: _488  and  _489
REMARK  193  A    between atoms: _489  and  _490
REMARK  194  A    between atoms: _490  and  _491
REMARK  195  A    between atoms: _495  and  _497
REMARK  196  A    between atoms: _497  and  _498
REMARK  197  A    between atoms: _497  and  _500
REMARK  198  A    between atoms: _500  and  _501
REMARK  199  A    between atoms: _506  and  _507
REMARK  200  A    between atoms: _509  and  _511
REMARK  201  A    between atoms: _511  and  _512
REMARK  202  A    between atoms: _511  and  _514
REMARK  203  A    between atoms: _514  and  _515
REMARK  204  A    between atoms: _521  and  _523
REMARK  205  A    between atoms: _523  and  _524
REMARK  206  A    between atoms: _523  and  _526
REMARK  207  A    between atoms: _526  and  _527
REMARK  208  A    between atoms: _530  and  _532
REMARK  209  A    between atoms: _532  and  _533
REMARK  210  A    between atoms: _532  and  _535
REMARK  211  A    between atoms: _535  and  _536
REMARK  212  A    between atoms: _542  and  _544
REMARK  213  A    between atoms: _544  and  _545
REMARK  214  A    between atoms: _547  and  _549
REMARK  215  A    between atoms: _549  and  _550
REMARK  216  A    between atoms: _549  and  _552
REMARK  217  A    between atoms: _552  and  _553
REMARK  218  A    between atoms: _556  and  _558
REMARK  219  A    between atoms: _558  and  _559
REMARK  220  A    between atoms: _558  and  _561
REMARK  221  A    between atoms: _561  and  _562
REMARK                            x       y       z     vdW  Elec       q    Type
REMARK                         _______ _______ _______ _____ _____    ______ ____
ROOT
ATOM      1  O   HOH     1      26.831  -2.075  10.530  0.00  0.00    +0.000 OA
ENDROOT
TORSDOF 0
REMARK  Name = ../refined-set-2016/4b1j/4b1j_pocket.pdb
REMARK  221 active torsions:
REMARK  status: ('A' for Active; 'I' for Inactive)
REMARK    1  A    between atoms: _1  and  _3
REMARK    2  A    between atoms: _3  and  _4
REMARK    3  A    between atoms: _3  and  _6
REMARK    4  A    between atoms: _6  and  _7
REMARK    5  A    between atoms: _7  and  _8
REMARK    6  A    between atoms: _11  and  _13
REMARK    7  A    between atoms: _13  and  _14
REMARK    8  A    between atoms: _16  and  _18
REMARK    9  A    between atoms: _18  and  _19
REMARK   10  A    between atoms: _18  and  _21
REMARK   11  A    between atoms: _21  and  _22
REMARK   12  A    between atoms: _25  and  _27
REMARK   13  A    between atoms: _27  and  _28
REMARK   14  A    between atoms: _27  and  _30
REMARK   15  A    between atoms: _30  and  _31
REMARK   16  A    between atoms: _34  and  _36
REMARK   17  A    between atoms: _36  and  _37
REMARK   18  A    between atoms: _36  and  _39
REMARK   19  A    between atoms: _39  and  _40
REMARK   20  A    between atoms: _40  and  _41
REMARK   21  A    between atoms: _44  and  _46
REMARK   22  A    between atoms: _46  and  _47
REMARK   23  A    between atoms: _46  and  _49
REMARK   24  A    between atoms: _49  and  _50
REMARK   25  A    between atoms: _50  and  _51
REMARK   26  A    between atoms: _54  and  _56
REMARK   27  A    between atoms: _56  and  _57
REMARK   28  A    between atoms: _56  and  _59
REMARK   29  A    between atoms: _59  and  _60
REMARK   30  A    between atoms: _65  and  _67
REMARK   31  A    between atoms: _67  and  _68
REMARK   32  A    between atoms: _67  and  _70
REMARK   33  A    between atoms: _73  and  _75
REMARK   34  A    between atoms: _75  and  _76
REMARK   35  A    between atoms: _75  and  _78
REMARK   36  A    between atoms: _78  and  _79
REMARK   37  A    between atoms: _82  and  _84
REMARK   38  A    between atoms: _84  and  _85
REMARK   39  A    between atoms: _84  and  _87
REMARK   40  A    between atoms: _87  and  _88
REMARK   41  A    between atoms: _94  and  _96
REMARK   42  A    between atoms: _96  and  _97
REMARK   43  A    between atoms: _100  and  _102
REMARK   44  A    between atoms: _102  and  _103
REMARK   45  A    between atoms: _102  and  _105
REMARK   46  A    between atoms: _105  and  _106
REMARK   47  A    between atoms: _111  and  _113
REMARK   48  A    between atoms: _113  and  _114
REMARK   49  A    between atoms: _113  and  _116
REMARK   50  A    between atoms: _116  and  _117
REMARK   51  A    between atoms: _117  and  _118
REMARK   52  A    between atoms: _118  and  _119
REMARK   53  A    between atoms: _128  and  _130
REMARK   54  A    between atoms: _130  and  _131
REMARK   55  A    between atoms: _130  and  _133
REMARK   56  A    between atoms: _133  and  _134
REMARK   57  A    between atoms: _140  and  _142
REMARK   58  A    between atoms: _142  and  _143
REMARK   59  A    between atoms: _142  and  _145
REMARK   60  A    between atoms: _148  and  _150
REMARK   61  A    between atoms: _150  and  _151
REMARK   62  A    between atoms: _153  and  _155
REMARK   63  A    between atoms: _155  and  _156
REMARK   64  A    between atoms: _158  and  _160
REMARK   65  A    between atoms: _160  and  _161
REMARK   66  A    between atoms: _163  and  _165
REMARK   67  A    between atoms: _165  and  _166
REMARK   68  A    between atoms: _165  and  _168
REMARK   69  A    between atoms: _171  and  _173
REMARK   70  A    between atoms: _173  and  _174
REMARK   71  A    between atoms: _176  and  _178
REMARK   72  A    between atoms: _178  and  _179
REMARK   73  A    between atoms: _178  and  _181
REMARK   74  A    between atoms: _181  and  _182
REMARK   75  A    between atoms: _185  and  _187
REMARK   76  A    between atoms: _187  and  _188
REMARK   77  A    between atoms: _187  and  _190
REMARK   78  A    between atoms: _193  and  _195
REMARK   79  A    between atoms: _195  and  _196
REMARK   80  A    between atoms: _195  and  _198
REMARK   81  A    between atoms: _198  and  _199
REMARK   82  A    between atoms: _199  and  _200
REMARK   83  A    between atoms: _205  and  _207
REMARK   84  A    between atoms: _207  and  _208
REMARK   85  A    between atoms: _207  and  _210
REMARK   86  A    between atoms: _210  and  _211
REMARK   87  A    between atoms: _211  and  _212
REMARK   88  A    between atoms: _215  and  _217
REMARK   89  A    between atoms: _217  and  _218
REMARK   90  A    between atoms: _217  and  _220
REMARK   91  A    between atoms: _220  and  _221
REMARK   92  A    between atoms: _221  and  _222
REMARK   93  A    between atoms: _225  and  _227
REMARK   94  A    between atoms: _227  and  _228
REMARK   95  A    between atoms: _227  and  _230
REMARK   96  A    between atoms: _230  and  _231
REMARK   97  A    between atoms: _234  and  _236
REMARK   98  A    between atoms: _236  and  _237
REMARK   99  A    between atoms: _236  and  _239
REMARK  100  A    between atoms: _239  and  _240
REMARK  101  A    between atoms: _240  and  _241
REMARK  102  A    between atoms: _241  and  _242
REMARK  103  A    between atoms: _251  and  _253
REMARK  104  A    between atoms: _253  and  _254
REMARK  105  A    between atoms: _253  and  _256
REMARK  106  A    between atoms: _256  and  _257
REMARK  107  A    between atoms: _263  and  _265
REMARK  108  A    between atoms: _265  and  _266
REMARK  109  A    between atoms: _265  and  _268
REMARK  110  A    between atoms: _268  and  _269
REMARK  111  A    between atoms: _272  and  _274
REMARK  112  A    between atoms: _274  and  _275
REMARK  113  A    between atoms: _274  and  _277
REMARK  114  A    between atoms: _277  and  _278
REMARK  115  A    between atoms: _278  and  _279
REMARK  116  A    between atoms: _279  and  _280
REMARK  117  A    between atoms: _289  and  _291
REMARK  118  A    between atoms: _291  and  _292
REMARK  119  A    between atoms: _291  and  _294
REMARK  120  A    between atoms: _294  and  _295
REMARK  121  A    between atoms: _300  and  _301
REMARK  122  A    between atoms: _303  and  _305
REMARK  123  A    between atoms: _305  and  _306
REMARK  124  A    between atoms: _308  and  _310
REMARK  125  A    between atoms: _310  and  _311
REMARK  126  A    between atoms: _310  and  _313
REMARK  127  A    between atoms: _313  and  _314
REMARK  128  A    between atoms: _319  and  _320
REMARK  129  A    between atoms: _322  and  _324
REMARK  130  A    between atoms: _324  and  _325
REMARK  131  A    between atoms: _328  and  _330
REMARK  132  A    between atoms: _330  and  _331
REMARK  133  A    between atoms: _330  and  _333
REMARK  134  A    between atoms: _333  and  _334
REMARK  135  A    between atoms: _337  and  _339
REMARK  136  A    between atoms: _339  and  _340
REMARK  137  A    between atoms: _339  and  _342
REMARK  138  A    between atoms: _342  and  _343
REMARK  139  A    between atoms: _346  and  _348
REMARK  140  A    between atoms: _348  and  _349
REMARK  141  A    between atoms: _352  and  _354
REMARK  142  A    between atoms: _354  and  _355
REMARK  143  A    between atoms: _354  and  _357
REMARK  144  A    between atoms: _357  and  _358
REMARK  145  A    between atoms: _361  and  _363
REMARK  146  A    between atoms: _363  and  _364
REMARK  147  A    between atoms: _363  and  _366
REMARK  148  A    between atoms: _366  and  _367
REMARK  149  A    between atoms: _372  and  _374
REMARK  150  A    between atoms: _374  and  _375
REMARK  151  A    between atoms: _374  and  _377
REMARK  152  A    between atoms: _377  and  _378
REMARK  153  A    between atoms: _384  and  _386
REMARK  154  A    between atoms: _386  and  _387
REMARK  155  A    between atoms: _390  and  _392
REMARK  156  A    between atoms: _392  and  _393
REMARK  157  A    between atoms: _392  and  _395
REMARK  158  A    between atoms: _395  and  _396
REMARK  159  A    between atoms: _399  and  _401
REMARK  160  A    between atoms: _401  and  _402
REMARK  161  A    between atoms: _404  and  _406
REMARK  162  A    between atoms: _406  and  _407
REMARK  163  A    between atoms: _406  and  _409
REMARK  164  A    between atoms: _409  and  _410
REMARK  165  A    between atoms: _415  and  _417
REMARK  166  A    between atoms: _417  and  _418
REMARK  167  A    between atoms: _417  and  _420
REMARK  168  A    between atoms: _420  and  _421
REMARK  169  A    between atoms: _431  and  _433
REMARK  170  A    between atoms: _433  and  _434
REMARK  171  A    between atoms: _436  and  _438
REMARK  172  A    between atoms: _438  and  _439
REMARK  173  A    between atoms: _438  and  _441
REMARK  174  A    between atoms: _443  and  _445
REMARK  175  A    between atoms: _445  and  _446
REMARK  176  A    between atoms: _448  and  _450
REMARK  177  A    between atoms: _450  and  _451
REMARK  178  A    between atoms: _454  and  _456
REMARK  179  A    between atoms: _456  and  _457
REMARK  180  A    between atoms: _456  and  _459
REMARK  181  A    between atoms: _459  and  _460
REMARK  182  A    between atoms: _466  and  _468
REMARK  183  A    between atoms: _468  and  _469
REMARK  184  A    between atoms: _471  and  _473
REMARK  185  A    between atoms: _473  and  _474
REMARK  186  A    between atoms: _476  and  _478
REMARK  187  A    between atoms: _478  and  _479
REMARK  188  A    between atoms: _482  and  _484
REMARK  189  A    between atoms: _484  and  _485
REMARK  190  A    between atoms: _484  and  _487
REMARK  191  A    between atoms: _487  and  _488
REMARK  192  A    between atoms: _488  and  _489
REMARK  193  A    between atoms: _489  and  _490
REMARK  194  A    between atoms: _490  and  _491
REMARK  195  A    between atoms: _495  and  _497
REMARK  196  A    between atoms: _497  and  _498
REMARK  197  A    between atoms: _497  and  _500
REMARK  198  A    between atoms: _500  and  _501
REMARK  199  A    between atoms: _506  and  _507
REMARK  200  A    between atoms: _509  and  _511
REMARK  201  A    between atoms: _511  and  _512
REMARK  202  A    between atoms: _511  and  _514
REMARK  203  A    between atoms: _514  and  _515
REMARK  204  A    between atoms: _521  and  _523
REMARK  205  A    between atoms: _523  and  _524
REMARK  206  A    between atoms: _523  and  _526
REMARK  207  A    between atoms: _526  and  _527
REMARK  208  A    between atoms: _530  and  _532
REMARK  209  A    between atoms: _532  and  _533
REMARK  210  A    between atoms: _532  and  _535
REMARK  211  A    between atoms: _535  and  _536
REMARK  212  A    between atoms: _542  and  _544
REMARK  213  A    between atoms: _544  and  _545
REMARK  214  A    between atoms: _547  and  _549
REMARK  215  A    between atoms: _549  and  _550
REMARK  216  A    between atoms: _549  and  _552
REMARK  217  A    between atoms: _552  and  _553
REMARK  218  A    between atoms: _556  and  _558
REMARK  219  A    between atoms: _558  and  _559
REMARK  220  A    between atoms: _558  and  _561
REMARK  221  A    between atoms: _561  and  _562
REMARK                            x       y       z     vdW  Elec       q    Type
REMARK                         _______ _______ _______ _____ _____    ______ ____
ROOT
ATOM      1  O   HOH     1      28.155   2.274  15.005  0.00  0.00    +0.000 OA
ENDROOT
TORSDOF 0
REMARK  Name = ../refined-set-2016/4b1j/4b1j_pocket.pdb
REMARK  221 active torsions:
REMARK  status: ('A' for Active; 'I' for Inactive)
REMARK    1  A    between atoms: _1  and  _3
REMARK    2  A    between atoms: _3  and  _4
REMARK    3  A    between atoms: _3  and  _6
REMARK    4  A    between atoms: _6  and  _7
REMARK    5  A    between atoms: _7  and  _8
REMARK    6  A    between atoms: _11  and  _13
REMARK    7  A    between atoms: _13  and  _14
REMARK    8  A    between atoms: _16  and  _18
REMARK    9  A    between atoms: _18  and  _19
REMARK   10  A    between atoms: _18  and  _21
REMARK   11  A    between atoms: _21  and  _22
REMARK   12  A    between atoms: _25  and  _27
REMARK   13  A    between atoms: _27  and  _28
REMARK   14  A    between atoms: _27  and  _30
REMARK   15  A    between atoms: _30  and  _31
REMARK   16  A    between atoms: _34  and  _36
REMARK   17  A    between atoms: _36  and  _37
REMARK   18  A    between atoms: _36  and  _39
REMARK   19  A    between atoms: _39  and  _40
REMARK   20  A    between atoms: _40  and  _41
REMARK   21  A    between atoms: _44  and  _46
REMARK   22  A    between atoms: _46  and  _47
REMARK   23  A    between atoms: _46  and  _49
REMARK   24  A    between atoms: _49  and  _50
REMARK   25  A    between atoms: _50  and  _51
REMARK   26  A    between atoms: _54  and  _56
REMARK   27  A    between atoms: _56  and  _57
REMARK   28  A    between atoms: _56  and  _59
REMARK   29  A    between atoms: _59  and  _60
REMARK   30  A    between atoms: _65  and  _67
REMARK   31  A    between atoms: _67  and  _68
REMARK   32  A    between atoms: _67  and  _70
REMARK   33  A    between atoms: _73  and  _75
REMARK   34  A    between atoms: _75  and  _76
REMARK   35  A    between atoms: _75  and  _78
REMARK   36  A    between atoms: _78  and  _79
REMARK   37  A    between atoms: _82  and  _84
REMARK   38  A    between atoms: _84  and  _85
REMARK   39  A    between atoms: _84  and  _87
REMARK   40  A    between atoms: _87  and  _88
REMARK   41  A    between atoms: _94  and  _96
REMARK   42  A    between atoms: _96  and  _97
REMARK   43  A    between atoms: _100  and  _102
REMARK   44  A    between atoms: _102  and  _103
REMARK   45  A    between atoms: _102  and  _105
REMARK   46  A    between atoms: _105  and  _106
REMARK   47  A    between atoms: _111  and  _113
REMARK   48  A    between atoms: _113  and  _114
REMARK   49  A    between atoms: _113  and  _116
REMARK   50  A    between atoms: _116  and  _117
REMARK   51  A    between atoms: _117  and  _118
REMARK   52  A    between atoms: _118  and  _119
REMARK   53  A    between atoms: _128  and  _130
REMARK   54  A    between atoms: _130  and  _131
REMARK   55  A    between atoms: _130  and  _133
REMARK   56  A    between atoms: _133  and  _134
REMARK   57  A    between atoms: _140  and  _142
REMARK   58  A    between atoms: _142  and  _143
REMARK   59  A    between atoms: _142  and  _145
REMARK   60  A    between atoms: _148  and  _150
REMARK   61  A    between atoms: _150  and  _151
REMARK   62  A    between atoms: _153  and  _155
REMARK   63  A    between atoms: _155  and  _156
REMARK   64  A    between atoms: _158  and  _160
REMARK   65  A    between atoms: _160  and  _161
REMARK   66  A    between atoms: _163  and  _165
REMARK   67  A    between atoms: _165  and  _166
REMARK   68  A    between atoms: _165  and  _168
REMARK   69  A    between atoms: _171  and  _173
REMARK   70  A    between atoms: _173  and  _174
REMARK   71  A    between atoms: _176  and  _178
REMARK   72  A    between atoms: _178  and  _179
REMARK   73  A    between atoms: _178  and  _181
REMARK   74  A    between atoms: _181  and  _182
REMARK   75  A    between atoms: _185  and  _187
REMARK   76  A    between atoms: _187  and  _188
REMARK   77  A    between atoms: _187  and  _190
REMARK   78  A    between atoms: _193  and  _195
REMARK   79  A    between atoms: _195  and  _196
REMARK   80  A    between atoms: _195  and  _198
REMARK   81  A    between atoms: _198  and  _199
REMARK   82  A    between atoms: _199  and  _200
REMARK   83  A    between atoms: _205  and  _207
REMARK   84  A    between atoms: _207  and  _208
REMARK   85  A    between atoms: _207  and  _210
REMARK   86  A    between atoms: _210  and  _211
REMARK   87  A    between atoms: _211  and  _212
REMARK   88  A    between atoms: _215  and  _217
REMARK   89  A    between atoms: _217  and  _218
REMARK   90  A    between atoms: _217  and  _220
REMARK   91  A    between atoms: _220  and  _221
REMARK   92  A    between atoms: _221  and  _222
REMARK   93  A    between atoms: _225  and  _227
REMARK   94  A    between atoms: _227  and  _228
REMARK   95  A    between atoms: _227  and  _230
REMARK   96  A    between atoms: _230  and  _231
REMARK   97  A    between atoms: _234  and  _236
REMARK   98  A    between atoms: _236  and  _237
REMARK   99  A    between atoms: _236  and  _239
REMARK  100  A    between atoms: _239  and  _240
REMARK  101  A    between atoms: _240  and  _241
REMARK  102  A    between atoms: _241  and  _242
REMARK  103  A    between atoms: _251  and  _253
REMARK  104  A    between atoms: _253  and  _254
REMARK  105  A    between atoms: _253  and  _256
REMARK  106  A    between atoms: _256  and  _257
REMARK  107  A    between atoms: _263  and  _265
REMARK  108  A    between atoms: _265  and  _266
REMARK  109  A    between atoms: _265  and  _268
REMARK  110  A    between atoms: _268  and  _269
REMARK  111  A    between atoms: _272  and  _274
REMARK  112  A    between atoms: _274  and  _275
REMARK  113  A    between atoms: _274  and  _277
REMARK  114  A    between atoms: _277  and  _278
REMARK  115  A    between atoms: _278  and  _279
REMARK  116  A    between atoms: _279  and  _280
REMARK  117  A    between atoms: _289  and  _291
REMARK  118  A    between atoms: _291  and  _292
REMARK  119  A    between atoms: _291  and  _294
REMARK  120  A    between atoms: _294  and  _295
REMARK  121  A    between atoms: _300  and  _301
REMARK  122  A    between atoms: _303  and  _305
REMARK  123  A    between atoms: _305  and  _306
REMARK  124  A    between atoms: _308  and  _310
REMARK  125  A    between atoms: _310  and  _311
REMARK  126  A    between atoms: _310  and  _313
REMARK  127  A    between atoms: _313  and  _314
REMARK  128  A    between atoms: _319  and  _320
REMARK  129  A    between atoms: _322  and  _324
REMARK  130  A    between atoms: _324  and  _325
REMARK  131  A    between atoms: _328  and  _330
REMARK  132  A    between atoms: _330  and  _331
REMARK  133  A    between atoms: _330  and  _333
REMARK  134  A    between atoms: _333  and  _334
REMARK  135  A    between atoms: _337  and  _339
REMARK  136  A    between atoms: _339  and  _340
REMARK  137  A    between atoms: _339  and  _342
REMARK  138  A    between atoms: _342  and  _343
REMARK  139  A    between atoms: _346  and  _348
REMARK  140  A    between atoms: _348  and  _349
REMARK  141  A    between atoms: _352  and  _354
REMARK  142  A    between atoms: _354  and  _355
REMARK  143  A    between atoms: _354  and  _357
REMARK  144  A    between atoms: _357  and  _358
REMARK  145  A    between atoms: _361  and  _363
REMARK  146  A    between atoms: _363  and  _364
REMARK  147  A    between atoms: _363  and  _366
REMARK  148  A    between atoms: _366  and  _367
REMARK  149  A    between atoms: _372  and  _374
REMARK  150  A    between atoms: _374  and  _375
REMARK  151  A    between atoms: _374  and  _377
REMARK  152  A    between atoms: _377  and  _378
REMARK  153  A    between atoms: _384  and  _386
REMARK  154  A    between atoms: _386  and  _387
REMARK  155  A    between atoms: _390  and  _392
REMARK  156  A    between atoms: _392  and  _393
REMARK  157  A    between atoms: _392  and  _395
REMARK  158  A    between atoms: _395  and  _396
REMARK  159  A    between atoms: _399  and  _401
REMARK  160  A    between atoms: _401  and  _402
REMARK  161  A    between atoms: _404  and  _406
REMARK  162  A    between atoms: _406  and  _407
REMARK  163  A    between atoms: _406  and  _409
REMARK  164  A    between atoms: _409  and  _410
REMARK  165  A    between atoms: _415  and  _417
REMARK  166  A    between atoms: _417  and  _418
REMARK  167  A    between atoms: _417  and  _420
REMARK  168  A    between atoms: _420  and  _421
REMARK  169  A    between atoms: _431  and  _433
REMARK  170  A    between atoms: _433  and  _434
REMARK  171  A    between atoms: _436  and  _438
REMARK  172  A    between atoms: _438  and  _439
REMARK  173  A    between atoms: _438  and  _441
REMARK  174  A    between atoms: _443  and  _445
REMARK  175  A    between atoms: _445  and  _446
REMARK  176  A    between atoms: _448  and  _450
REMARK  177  A    between atoms: _450  and  _451
REMARK  178  A    between atoms: _454  and  _456
REMARK  179  A    between atoms: _456  and  _457
REMARK  180  A    between atoms: _456  and  _459
REMARK  181  A    between atoms: _459  and  _460
REMARK  182  A    between atoms: _466  and  _468
REMARK  183  A    between atoms: _468  and  _469
REMARK  184  A    between atoms: _471  and  _473
REMARK  185  A    between atoms: _473  and  _474
REMARK  186  A    between atoms: _476  and  _478
REMARK  187  A    between atoms: _478  and  _479
REMARK  188  A    between atoms: _482  and  _484
REMARK  189  A    between atoms: _484  and  _485
REMARK  190  A    between atoms: _484  and  _487
REMARK  191  A    between atoms: _487  and  _488
REMARK  192  A    between atoms: _488  and  _489
REMARK  193  A    between atoms: _489  and  _490
REMARK  194  A    between atoms: _490  and  _491
REMARK  195  A    between atoms: _495  and  _497
REMARK  196  A    between atoms: _497  and  _498
REMARK  197  A    between atoms: _497  and  _500
REMARK  198  A    between atoms: _500  and  _501
REMARK  199  A    between atoms: _506  and  _507
REMARK  200  A    between atoms: _509  and  _511
REMARK  201  A    between atoms: _511  and  _512
REMARK  202  A    between atoms: _511  and  _514
REMARK  203  A    between atoms: _514  and  _515
REMARK  204  A    between atoms: _521  and  _523
REMARK  205  A    between atoms: _523  and  _524
REMARK  206  A    between atoms: _523  and  _526
REMARK  207  A    between atoms: _526  and  _527
REMARK  208  A    between atoms: _530  and  _532
REMARK  209  A    between atoms: _532  and  _533
REMARK  210  A    between atoms: _532  and  _535
REMARK  211  A    between atoms: _535  and  _536
REMARK  212  A    between atoms: _542  and  _544
REMARK  213  A    between atoms: _544  and  _545
REMARK  214  A    between atoms: _547  and  _549
REMARK  215  A    between atoms: _549  and  _550
REMARK  216  A    between atoms: _549  and  _552
REMARK  217  A    between atoms: _552  and  _553
REMARK  218  A    between atoms: _556  and  _558
REMARK  219  A    between atoms: _558  and  _559
REMARK  220  A    between atoms: _558  and  _561
REMARK  221  A    between atoms: _561  and  _562
REMARK                            x       y       z     vdW  Elec       q    Type
REMARK                         _______ _______ _______ _____ _____    ______ ____
ROOT
ATOM      1  O   HOH     1      28.326   6.774   9.738  0.00  0.00    +0.000 OA
ENDROOT
TORSDOF 0
REMARK  Name = ../refined-set-2016/4b1j/4b1j_pocket.pdb
REMARK  221 active torsions:
REMARK  status: ('A' for Active; 'I' for Inactive)
REMARK    1  A    between atoms: _1  and  _3
REMARK    2  A    between atoms: _3  and  _4
REMARK    3  A    between atoms: _3  and  _6
REMARK    4  A    between atoms: _6  and  _7
REMARK    5  A    between atoms: _7  and  _8
REMARK    6  A    between atoms: _11  and  _13
REMARK    7  A    between atoms: _13  and  _14
REMARK    8  A    between atoms: _16  and  _18
REMARK    9  A    between atoms: _18  and  _19
REMARK   10  A    between atoms: _18  and  _21
REMARK   11  A    between atoms: _21  and  _22
REMARK   12  A    between atoms: _25  and  _27
REMARK   13  A    between atoms: _27  and  _28
REMARK   14  A    between atoms: _27  and  _30
REMARK   15  A    between atoms: _30  and  _31
REMARK   16  A    between atoms: _34  and  _36
REMARK   17  A    between atoms: _36  and  _37
REMARK   18  A    between atoms: _36  and  _39
REMARK   19  A    between atoms: _39  and  _40
REMARK   20  A    between atoms: _40  and  _41
REMARK   21  A    between atoms: _44  and  _46
REMARK   22  A    between atoms: _46  and  _47
REMARK   23  A    between atoms: _46  and  _49
REMARK   24  A    between atoms: _49  and  _50
REMARK   25  A    between atoms: _50  and  _51
REMARK   26  A    between atoms: _54  and  _56
REMARK   27  A    between atoms: _56  and  _57
REMARK   28  A    between atoms: _56  and  _59
REMARK   29  A    between atoms: _59  and  _60
REMARK   30  A    between atoms: _65  and  _67
REMARK   31  A    between atoms: _67  and  _68
REMARK   32  A    between atoms: _67  and  _70
REMARK   33  A    between atoms: _73  and  _75
REMARK   34  A    between atoms: _75  and  _76
REMARK   35  A    between atoms: _75  and  _78
REMARK   36  A    between atoms: _78  and  _79
REMARK   37  A    between atoms: _82  and  _84
REMARK   38  A    between atoms: _84  and  _85
REMARK   39  A    between atoms: _84  and  _87
REMARK   40  A    between atoms: _87  and  _88
REMARK   41  A    between atoms: _94  and  _96
REMARK   42  A    between atoms: _96  and  _97
REMARK   43  A    between atoms: _100  and  _102
REMARK   44  A    between atoms: _102  and  _103
REMARK   45  A    between atoms: _102  and  _105
REMARK   46  A    between atoms: _105  and  _106
REMARK   47  A    between atoms: _111  and  _113
REMARK   48  A    between atoms: _113  and  _114
REMARK   49  A    between atoms: _113  and  _116
REMARK   50  A    between atoms: _116  and  _117
REMARK   51  A    between atoms: _117  and  _118
REMARK   52  A    between atoms: _118  and  _119
REMARK   53  A    between atoms: _128  and  _130
REMARK   54  A    between atoms: _130  and  _131
REMARK   55  A    between atoms: _130  and  _133
REMARK   56  A    between atoms: _133  and  _134
REMARK   57  A    between atoms: _140  and  _142
REMARK   58  A    between atoms: _142  and  _143
REMARK   59  A    between atoms: _142  and  _145
REMARK   60  A    between atoms: _148  and  _150
REMARK   61  A    between atoms: _150  and  _151
REMARK   62  A    between atoms: _153  and  _155
REMARK   63  A    between atoms: _155  and  _156
REMARK   64  A    between atoms: _158  and  _160
REMARK   65  A    between atoms: _160  and  _161
REMARK   66  A    between atoms: _163  and  _165
REMARK   67  A    between atoms: _165  and  _166
REMARK   68  A    between atoms: _165  and  _168
REMARK   69  A    between atoms: _171  and  _173
REMARK   70  A    between atoms: _173  and  _174
REMARK   71  A    between atoms: _176  and  _178
REMARK   72  A    between atoms: _178  and  _179
REMARK   73  A    between atoms: _178  and  _181
REMARK   74  A    between atoms: _181  and  _182
REMARK   75  A    between atoms: _185  and  _187
REMARK   76  A    between atoms: _187  and  _188
REMARK   77  A    between atoms: _187  and  _190
REMARK   78  A    between atoms: _193  and  _195
REMARK   79  A    between atoms: _195  and  _196
REMARK   80  A    between atoms: _195  and  _198
REMARK   81  A    between atoms: _198  and  _199
REMARK   82  A    between atoms: _199  and  _200
REMARK   83  A    between atoms: _205  and  _207
REMARK   84  A    between atoms: _207  and  _208
REMARK   85  A    between atoms: _207  and  _210
REMARK   86  A    between atoms: _210  and  _211
REMARK   87  A    between atoms: _211  and  _212
REMARK   88  A    between atoms: _215  and  _217
REMARK   89  A    between atoms: _217  and  _218
REMARK   90  A    between atoms: _217  and  _220
REMARK   91  A    between atoms: _220  and  _221
REMARK   92  A    between atoms: _221  and  _222
REMARK   93  A    between atoms: _225  and  _227
REMARK   94  A    between atoms: _227  and  _228
REMARK   95  A    between atoms: _227  and  _230
REMARK   96  A    between atoms: _230  and  _231
REMARK   97  A    between atoms: _234  and  _236
REMARK   98  A    between atoms: _236  and  _237
REMARK   99  A    between atoms: _236  and  _239
REMARK  100  A    between atoms: _239  and  _240
REMARK  101  A    between atoms: _240  and  _241
REMARK  102  A    between atoms: _241  and  _242
REMARK  103  A    between atoms: _251  and  _253
REMARK  104  A    between atoms: _253  and  _254
REMARK  105  A    between atoms: _253  and  _256
REMARK  106  A    between atoms: _256  and  _257
REMARK  107  A    between atoms: _263  and  _265
REMARK  108  A    between atoms: _265  and  _266
REMARK  109  A    between atoms: _265  and  _268
REMARK  110  A    between atoms: _268  and  _269
REMARK  111  A    between atoms: _272  and  _274
REMARK  112  A    between atoms: _274  and  _275
REMARK  113  A    between atoms: _274  and  _277
REMARK  114  A    between atoms: _277  and  _278
REMARK  115  A    between atoms: _278  and  _279
REMARK  116  A    between atoms: _279  and  _280
REMARK  117  A    between atoms: _289  and  _291
REMARK  118  A    between atoms: _291  and  _292
REMARK  119  A    between atoms: _291  and  _294
REMARK  120  A    between atoms: _294  and  _295
REMARK  121  A    between atoms: _300  and  _301
REMARK  122  A    between atoms: _303  and  _305
REMARK  123  A    between atoms: _305  and  _306
REMARK  124  A    between atoms: _308  and  _310
REMARK  125  A    between atoms: _310  and  _311
REMARK  126  A    between atoms: _310  and  _313
REMARK  127  A    between atoms: _313  and  _314
REMARK  128  A    between atoms: _319  and  _320
REMARK  129  A    between atoms: _322  and  _324
REMARK  130  A    between atoms: _324  and  _325
REMARK  131  A    between atoms: _328  and  _330
REMARK  132  A    between atoms: _330  and  _331
REMARK  133  A    between atoms: _330  and  _333
REMARK  134  A    between atoms: _333  and  _334
REMARK  135  A    between atoms: _337  and  _339
REMARK  136  A    between atoms: _339  and  _340
REMARK  137  A    between atoms: _339  and  _342
REMARK  138  A    between atoms: _342  and  _343
REMARK  139  A    between atoms: _346  and  _348
REMARK  140  A    between atoms: _348  and  _349
REMARK  141  A    between atoms: _352  and  _354
REMARK  142  A    between atoms: _354  and  _355
REMARK  143  A    between atoms: _354  and  _357
REMARK  144  A    between atoms: _357  and  _358
REMARK  145  A    between atoms: _361  and  _363
REMARK  146  A    between atoms: _363  and  _364
REMARK  147  A    between atoms: _363  and  _366
REMARK  148  A    between atoms: _366  and  _367
REMARK  149  A    between atoms: _372  and  _374
REMARK  150  A    between atoms: _374  and  _375
REMARK  151  A    between atoms: _374  and  _377
REMARK  152  A    between atoms: _377  and  _378
REMARK  153  A    between atoms: _384  and  _386
REMARK  154  A    between atoms: _386  and  _387
REMARK  155  A    between atoms: _390  and  _392
REMARK  156  A    between atoms: _392  and  _393
REMARK  157  A    between atoms: _392  and  _395
REMARK  158  A    between atoms: _395  and  _396
REMARK  159  A    between atoms: _399  and  _401
REMARK  160  A    between atoms: _401  and  _402
REMARK  161  A    between atoms: _404  and  _406
REMARK  162  A    between atoms: _406  and  _407
REMARK  163  A    between atoms: _406  and  _409
REMARK  164  A    between atoms: _409  and  _410
REMARK  165  A    between atoms: _415  and  _417
REMARK  166  A    between atoms: _417  and  _418
REMARK  167  A    between atoms: _417  and  _420
REMARK  168  A    between atoms: _420  and  _421
REMARK  169  A    between atoms: _431  and  _433
REMARK  170  A    between atoms: _433  and  _434
REMARK  171  A    between atoms: _436  and  _438
REMARK  172  A    between atoms: _438  and  _439
REMARK  173  A    between atoms: _438  and  _441
REMARK  174  A    between atoms: _443  and  _445
REMARK  175  A    between atoms: _445  and  _446
REMARK  176  A    between atoms: _448  and  _450
REMARK  177  A    between atoms: _450  and  _451
REMARK  178  A    between atoms: _454  and  _456
REMARK  179  A    between atoms: _456  and  _457
REMARK  180  A    between atoms: _456  and  _459
REMARK  181  A    between atoms: _459  and  _460
REMARK  182  A    between atoms: _466  and  _468
REMARK  183  A    between atoms: _468  and  _469
REMARK  184  A    between atoms: _471  and  _473
REMARK  185  A    between atoms: _473  and  _474
REMARK  186  A    between atoms: _476  and  _478
REMARK  187  A    between atoms: _478  and  _479
REMARK  188  A    between atoms: _482  and  _484
REMARK  189  A    between atoms: _484  and  _485
REMARK  190  A    between atoms: _484  and  _487
REMARK  191  A    between atoms: _487  and  _488
REMARK  192  A    between atoms: _488  and  _489
REMARK  193  A    between atoms: _489  and  _490
REMARK  194  A    between atoms: _490  and  _491
REMARK  195  A    between atoms: _495  and  _497
REMARK  196  A    between atoms: _497  and  _498
REMARK  197  A    between atoms: _497  and  _500
REMARK  198  A    between atoms: _500  and  _501
REMARK  199  A    between atoms: _506  and  _507
REMARK  200  A    between atoms: _509  and  _511
REMARK  201  A    between atoms: _511  and  _512
REMARK  202  A    between atoms: _511  and  _514
REMARK  203  A    between atoms: _514  and  _515
REMARK  204  A    between atoms: _521  and  _523
REMARK  205  A    between atoms: _523  and  _524
REMARK  206  A    between atoms: _523  and  _526
REMARK  207  A    between atoms: _526  and  _527
REMARK  208  A    between atoms: _530  and  _532
REMARK  209  A    between atoms: _532  and  _533
REMARK  210  A    between atoms: _532  and  _535
REMARK  211  A    between atoms: _535  and  _536
REMARK  212  A    between atoms: _542  and  _544
REMARK  213  A    between atoms: _544  and  _545
REMARK  214  A    between atoms: _547  and  _549
REMARK  215  A    between atoms: _549  and  _550
REMARK  216  A    between atoms: _549  and  _552
REMARK  217  A    between atoms: _552  and  _553
REMARK  218  A    between atoms: _556  and  _558
REMARK  219  A    between atoms: _558  and  _559
REMARK  220  A    between atoms: _558  and  _561
REMARK  221  A    between atoms: _561  and  _562
REMARK                            x       y       z     vdW  Elec       q    Type
REMARK                         _______ _______ _______ _____ _____    ______ ____
ROOT
ATOM      1  O   HOH     1      31.856   4.494  14.079  0.00  0.00    +0.000 OA
ENDROOT
TORSDOF 0
REMARK  Name = ../refined-set-2016/4b1j/4b1j_pocket.pdb
REMARK  221 active torsions:
REMARK  status: ('A' for Active; 'I' for Inactive)
REMARK    1  A    between atoms: _1  and  _3
REMARK    2  A    between atoms: _3  and  _4
REMARK    3  A    between atoms: _3  and  _6
REMARK    4  A    between atoms: _6  and  _7
REMARK    5  A    between atoms: _7  and  _8
REMARK    6  A    between atoms: _11  and  _13
REMARK    7  A    between atoms: _13  and  _14
REMARK    8  A    between atoms: _16  and  _18
REMARK    9  A    between atoms: _18  and  _19
REMARK   10  A    between atoms: _18  and  _21
REMARK   11  A    between atoms: _21  and  _22
REMARK   12  A    between atoms: _25  and  _27
REMARK   13  A    between atoms: _27  and  _28
REMARK   14  A    between atoms: _27  and  _30
REMARK   15  A    between atoms: _30  and  _31
REMARK   16  A    between atoms: _34  and  _36
REMARK   17  A    between atoms: _36  and  _37
REMARK   18  A    between atoms: _36  and  _39
REMARK   19  A    between atoms: _39  and  _40
REMARK   20  A    between atoms: _40  and  _41
REMARK   21  A    between atoms: _44  and  _46
REMARK   22  A    between atoms: _46  and  _47
REMARK   23  A    between atoms: _46  and  _49
REMARK   24  A    between atoms: _49  and  _50
REMARK   25  A    between atoms: _50  and  _51
REMARK   26  A    between atoms: _54  and  _56
REMARK   27  A    between atoms: _56  and  _57
REMARK   28  A    between atoms: _56  and  _59
REMARK   29  A    between atoms: _59  and  _60
REMARK   30  A    between atoms: _65  and  _67
REMARK   31  A    between atoms: _67  and  _68
REMARK   32  A    between atoms: _67  and  _70
REMARK   33  A    between atoms: _73  and  _75
REMARK   34  A    between atoms: _75  and  _76
REMARK   35  A    between atoms: _75  and  _78
REMARK   36  A    between atoms: _78  and  _79
REMARK   37  A    between atoms: _82  and  _84
REMARK   38  A    between atoms: _84  and  _85
REMARK   39  A    between atoms: _84  and  _87
REMARK   40  A    between atoms: _87  and  _88
REMARK   41  A    between atoms: _94  and  _96
REMARK   42  A    between atoms: _96  and  _97
REMARK   43  A    between atoms: _100  and  _102
REMARK   44  A    between atoms: _102  and  _103
REMARK   45  A    between atoms: _102  and  _105
REMARK   46  A    between atoms: _105  and  _106
REMARK   47  A    between atoms: _111  and  _113
REMARK   48  A    between atoms: _113  and  _114
REMARK   49  A    between atoms: _113  and  _116
REMARK   50  A    between atoms: _116  and  _117
REMARK   51  A    between atoms: _117  and  _118
REMARK   52  A    between atoms: _118  and  _119
REMARK   53  A    between atoms: _128  and  _130
REMARK   54  A    between atoms: _130  and  _131
REMARK   55  A    between atoms: _130  and  _133
REMARK   56  A    between atoms: _133  and  _134
REMARK   57  A    between atoms: _140  and  _142
REMARK   58  A    between atoms: _142  and  _143
REMARK   59  A    between atoms: _142  and  _145
REMARK   60  A    between atoms: _148  and  _150
REMARK   61  A    between atoms: _150  and  _151
REMARK   62  A    between atoms: _153  and  _155
REMARK   63  A    between atoms: _155  and  _156
REMARK   64  A    between atoms: _158  and  _160
REMARK   65  A    between atoms: _160  and  _161
REMARK   66  A    between atoms: _163  and  _165
REMARK   67  A    between atoms: _165  and  _166
REMARK   68  A    between atoms: _165  and  _168
REMARK   69  A    between atoms: _171  and  _173
REMARK   70  A    between atoms: _173  and  _174
REMARK   71  A    between atoms: _176  and  _178
REMARK   72  A    between atoms: _178  and  _179
REMARK   73  A    between atoms: _178  and  _181
REMARK   74  A    between atoms: _181  and  _182
REMARK   75  A    between atoms: _185  and  _187
REMARK   76  A    between atoms: _187  and  _188
REMARK   77  A    between atoms: _187  and  _190
REMARK   78  A    between atoms: _193  and  _195
REMARK   79  A    between atoms: _195  and  _196
REMARK   80  A    between atoms: _195  and  _198
REMARK   81  A    between atoms: _198  and  _199
REMARK   82  A    between atoms: _199  and  _200
REMARK   83  A    between atoms: _205  and  _207
REMARK   84  A    between atoms: _207  and  _208
REMARK   85  A    between atoms: _207  and  _210
REMARK   86  A    between atoms: _210  and  _211
REMARK   87  A    between atoms: _211  and  _212
REMARK   88  A    between atoms: _215  and  _217
REMARK   89  A    between atoms: _217  and  _218
REMARK   90  A    between atoms: _217  and  _220
REMARK   91  A    between atoms: _220  and  _221
REMARK   92  A    between atoms: _221  and  _222
REMARK   93  A    between atoms: _225  and  _227
REMARK   94  A    between atoms: _227  and  _228
REMARK   95  A    between atoms: _227  and  _230
REMARK   96  A    between atoms: _230  and  _231
REMARK   97  A    between atoms: _234  and  _236
REMARK   98  A    between atoms: _236  and  _237
REMARK   99  A    between atoms: _236  and  _239
REMARK  100  A    between atoms: _239  and  _240
REMARK  101  A    between atoms: _240  and  _241
REMARK  102  A    between atoms: _241  and  _242
REMARK  103  A    between atoms: _251  and  _253
REMARK  104  A    between atoms: _253  and  _254
REMARK  105  A    between atoms: _253  and  _256
REMARK  106  A    between atoms: _256  and  _257
REMARK  107  A    between atoms: _263  and  _265
REMARK  108  A    between atoms: _265  and  _266
REMARK  109  A    between atoms: _265  and  _268
REMARK  110  A    between atoms: _268  and  _269
REMARK  111  A    between atoms: _272  and  _274
REMARK  112  A    between atoms: _274  and  _275
REMARK  113  A    between atoms: _274  and  _277
REMARK  114  A    between atoms: _277  and  _278
REMARK  115  A    between atoms: _278  and  _279
REMARK  116  A    between atoms: _279  and  _280
REMARK  117  A    between atoms: _289  and  _291
REMARK  118  A    between atoms: _291  and  _292
REMARK  119  A    between atoms: _291  and  _294
REMARK  120  A    between atoms: _294  and  _295
REMARK  121  A    between atoms: _300  and  _301
REMARK  122  A    between atoms: _303  and  _305
REMARK  123  A    between atoms: _305  and  _306
REMARK  124  A    between atoms: _308  and  _310
REMARK  125  A    between atoms: _310  and  _311
REMARK  126  A    between atoms: _310  and  _313
REMARK  127  A    between atoms: _313  and  _314
REMARK  128  A    between atoms: _319  and  _320
REMARK  129  A    between atoms: _322  and  _324
REMARK  130  A    between atoms: _324  and  _325
REMARK  131  A    between atoms: _328  and  _330
REMARK  132  A    between atoms: _330  and  _331
REMARK  133  A    between atoms: _330  and  _333
REMARK  134  A    between atoms: _333  and  _334
REMARK  135  A    between atoms: _337  and  _339
REMARK  136  A    between atoms: _339  and  _340
REMARK  137  A    between atoms: _339  and  _342
REMARK  138  A    between atoms: _342  and  _343
REMARK  139  A    between atoms: _346  and  _348
REMARK  140  A    between atoms: _348  and  _349
REMARK  141  A    between atoms: _352  and  _354
REMARK  142  A    between atoms: _354  and  _355
REMARK  143  A    between atoms: _354  and  _357
REMARK  144  A    between atoms: _357  and  _358
REMARK  145  A    between atoms: _361  and  _363
REMARK  146  A    between atoms: _363  and  _364
REMARK  147  A    between atoms: _363  and  _366
REMARK  148  A    between atoms: _366  and  _367
REMARK  149  A    between atoms: _372  and  _374
REMARK  150  A    between atoms: _374  and  _375
REMARK  151  A    between atoms: _374  and  _377
REMARK  152  A    between atoms: _377  and  _378
REMARK  153  A    between atoms: _384  and  _386
REMARK  154  A    between atoms: _386  and  _387
REMARK  155  A    between atoms: _390  and  _392
REMARK  156  A    between atoms: _392  and  _393
REMARK  157  A    between atoms: _392  and  _395
REMARK  158  A    between atoms: _395  and  _396
REMARK  159  A    between atoms: _399  and  _401
REMARK  160  A    between atoms: _401  and  _402
REMARK  161  A    between atoms: _404  and  _406
REMARK  162  A    between atoms: _406  and  _407
REMARK  163  A    between atoms: _406  and  _409
REMARK  164  A    between atoms: _409  and  _410
REMARK  165  A    between atoms: _415  and  _417
REMARK  166  A    between atoms: _417  and  _418
REMARK  167  A    between atoms: _417  and  _420
REMARK  168  A    between atoms: _420  and  _421
REMARK  169  A    between atoms: _431  and  _433
REMARK  170  A    between atoms: _433  and  _434
REMARK  171  A    between atoms: _436  and  _438
REMARK  172  A    between atoms: _438  and  _439
REMARK  173  A    between atoms: _438  and  _441
REMARK  174  A    between atoms: _443  and  _445
REMARK  175  A    between atoms: _445  and  _446
REMARK  176  A    between atoms: _448  and  _450
REMARK  177  A    between atoms: _450  and  _451
REMARK  178  A    between atoms: _454  and  _456
REMARK  179  A    between atoms: _456  and  _457
REMARK  180  A    between atoms: _456  and  _459
REMARK  181  A    between atoms: _459  and  _460
REMARK  182  A    between atoms: _466  and  _468
REMARK  183  A    between atoms: _468  and  _469
REMARK  184  A    between atoms: _471  and  _473
REMARK  185  A    between atoms: _473  and  _474
REMARK  186  A    between atoms: _476  and  _478
REMARK  187  A    between atoms: _478  and  _479
REMARK  188  A    between atoms: _482  and  _484
REMARK  189  A    between atoms: _484  and  _485
REMARK  190  A    between atoms: _484  and  _487
REMARK  191  A    between atoms: _487  and  _488
REMARK  192  A    between atoms: _488  and  _489
REMARK  193  A    between atoms: _489  and  _490
REMARK  194  A    between atoms: _490  and  _491
REMARK  195  A    between atoms: _495  and  _497
REMARK  196  A    between atoms: _497  and  _498
REMARK  197  A    between atoms: _497  and  _500
REMARK  198  A    between atoms: _500  and  _501
REMARK  199  A    between atoms: _506  and  _507
REMARK  200  A    between atoms: _509  and  _511
REMARK  201  A    between atoms: _511  and  _512
REMARK  202  A    between atoms: _511  and  _514
REMARK  203  A    between atoms: _514  and  _515
REMARK  204  A    between atoms: _521  and  _523
REMARK  205  A    between atoms: _523  and  _524
REMARK  206  A    between atoms: _523  and  _526
REMARK  207  A    between atoms: _526  and  _527
REMARK  208  A    between atoms: _530  and  _532
REMARK  209  A    between atoms: _532  and  _533
REMARK  210  A    between atoms: _532  and  _535
REMARK  211  A    between atoms: _535  and  _536
REMARK  212  A    between atoms: _542  and  _544
REMARK  213  A    between atoms: _544  and  _545
REMARK  214  A    between atoms: _547  and  _549
REMARK  215  A    between atoms: _549  and  _550
REMARK  216  A    between atoms: _549  and  _552
REMARK  217  A    between atoms: _552  and  _553
REMARK  218  A    between atoms: _556  and  _558
REMARK  219  A    between atoms: _558  and  _559
REMARK  220  A    between atoms: _558  and  _561
REMARK  221  A    between atoms: _561  and  _562
REMARK                            x       y       z     vdW  Elec       q    Type
REMARK                         _______ _______ _______ _____ _____    ______ ____
ROOT
ATOM      1  O   HOH     1      24.727   9.361  12.964  0.00  0.00    +0.000 OA
ENDROOT
TORSDOF 0
REMARK  Name = ../refined-set-2016/4b1j/4b1j_pocket.pdb
REMARK  221 active torsions:
REMARK  status: ('A' for Active; 'I' for Inactive)
REMARK    1  A    between atoms: _1  and  _3
REMARK    2  A    between atoms: _3  and  _4
REMARK    3  A    between atoms: _3  and  _6
REMARK    4  A    between atoms: _6  and  _7
REMARK    5  A    between atoms: _7  and  _8
REMARK    6  A    between atoms: _11  and  _13
REMARK    7  A    between atoms: _13  and  _14
REMARK    8  A    between atoms: _16  and  _18
REMARK    9  A    between atoms: _18  and  _19
REMARK   10  A    between atoms: _18  and  _21
REMARK   11  A    between atoms: _21  and  _22
REMARK   12  A    between atoms: _25  and  _27
REMARK   13  A    between atoms: _27  and  _28
REMARK   14  A    between atoms: _27  and  _30
REMARK   15  A    between atoms: _30  and  _31
REMARK   16  A    between atoms: _34  and  _36
REMARK   17  A    between atoms: _36  and  _37
REMARK   18  A    between atoms: _36  and  _39
REMARK   19  A    between atoms: _39  and  _40
REMARK   20  A    between atoms: _40  and  _41
REMARK   21  A    between atoms: _44  and  _46
REMARK   22  A    between atoms: _46  and  _47
REMARK   23  A    between atoms: _46  and  _49
REMARK   24  A    between atoms: _49  and  _50
REMARK   25  A    between atoms: _50  and  _51
REMARK   26  A    between atoms: _54  and  _56
REMARK   27  A    between atoms: _56  and  _57
REMARK   28  A    between atoms: _56  and  _59
REMARK   29  A    between atoms: _59  and  _60
REMARK   30  A    between atoms: _65  and  _67
REMARK   31  A    between atoms: _67  and  _68
REMARK   32  A    between atoms: _67  and  _70
REMARK   33  A    between atoms: _73  and  _75
REMARK   34  A    between atoms: _75  and  _76
REMARK   35  A    between atoms: _75  and  _78
REMARK   36  A    between atoms: _78  and  _79
REMARK   37  A    between atoms: _82  and  _84
REMARK   38  A    between atoms: _84  and  _85
REMARK   39  A    between atoms: _84  and  _87
REMARK   40  A    between atoms: _87  and  _88
REMARK   41  A    between atoms: _94  and  _96
REMARK   42  A    between atoms: _96  and  _97
REMARK   43  A    between atoms: _100  and  _102
REMARK   44  A    between atoms: _102  and  _103
REMARK   45  A    between atoms: _102  and  _105
REMARK   46  A    between atoms: _105  and  _106
REMARK   47  A    between atoms: _111  and  _113
REMARK   48  A    between atoms: _113  and  _114
REMARK   49  A    between atoms: _113  and  _116
REMARK   50  A    between atoms: _116  and  _117
REMARK   51  A    between atoms: _117  and  _118
REMARK   52  A    between atoms: _118  and  _119
REMARK   53  A    between atoms: _128  and  _130
REMARK   54  A    between atoms: _130  and  _131
REMARK   55  A    between atoms: _130  and  _133
REMARK   56  A    between atoms: _133  and  _134
REMARK   57  A    between atoms: _140  and  _142
REMARK   58  A    between atoms: _142  and  _143
REMARK   59  A    between atoms: _142  and  _145
REMARK   60  A    between atoms: _148  and  _150
REMARK   61  A    between atoms: _150  and  _151
REMARK   62  A    between atoms: _153  and  _155
REMARK   63  A    between atoms: _155  and  _156
REMARK   64  A    between atoms: _158  and  _160
REMARK   65  A    between atoms: _160  and  _161
REMARK   66  A    between atoms: _163  and  _165
REMARK   67  A    between atoms: _165  and  _166
REMARK   68  A    between atoms: _165  and  _168
REMARK   69  A    between atoms: _171  and  _173
REMARK   70  A    between atoms: _173  and  _174
REMARK   71  A    between atoms: _176  and  _178
REMARK   72  A    between atoms: _178  and  _179
REMARK   73  A    between atoms: _178  and  _181
REMARK   74  A    between atoms: _181  and  _182
REMARK   75  A    between atoms: _185  and  _187
REMARK   76  A    between atoms: _187  and  _188
REMARK   77  A    between atoms: _187  and  _190
REMARK   78  A    between atoms: _193  and  _195
REMARK   79  A    between atoms: _195  and  _196
REMARK   80  A    between atoms: _195  and  _198
REMARK   81  A    between atoms: _198  and  _199
REMARK   82  A    between atoms: _199  and  _200
REMARK   83  A    between atoms: _205  and  _207
REMARK   84  A    between atoms: _207  and  _208
REMARK   85  A    between atoms: _207  and  _210
REMARK   86  A    between atoms: _210  and  _211
REMARK   87  A    between atoms: _211  and  _212
REMARK   88  A    between atoms: _215  and  _217
REMARK   89  A    between atoms: _217  and  _218
REMARK   90  A    between atoms: _217  and  _220
REMARK   91  A    between atoms: _220  and  _221
REMARK   92  A    between atoms: _221  and  _222
REMARK   93  A    between atoms: _225  and  _227
REMARK   94  A    between atoms: _227  and  _228
REMARK   95  A    between atoms: _227  and  _230
REMARK   96  A    between atoms: _230  and  _231
REMARK   97  A    between atoms: _234  and  _236
REMARK   98  A    between atoms: _236  and  _237
REMARK   99  A    between atoms: _236  and  _239
REMARK  100  A    between atoms: _239  and  _240
REMARK  101  A    between atoms: _240  and  _241
REMARK  102  A    between atoms: _241  and  _242
REMARK  103  A    between atoms: _251  and  _253
REMARK  104  A    between atoms: _253  and  _254
REMARK  105  A    between atoms: _253  and  _256
REMARK  106  A    between atoms: _256  and  _257
REMARK  107  A    between atoms: _263  and  _265
REMARK  108  A    between atoms: _265  and  _266
REMARK  109  A    between atoms: _265  and  _268
REMARK  110  A    between atoms: _268  and  _269
REMARK  111  A    between atoms: _272  and  _274
REMARK  112  A    between atoms: _274  and  _275
REMARK  113  A    between atoms: _274  and  _277
REMARK  114  A    between atoms: _277  and  _278
REMARK  115  A    between atoms: _278  and  _279
REMARK  116  A    between atoms: _279  and  _280
REMARK  117  A    between atoms: _289  and  _291
REMARK  118  A    between atoms: _291  and  _292
REMARK  119  A    between atoms: _291  and  _294
REMARK  120  A    between atoms: _294  and  _295
REMARK  121  A    between atoms: _300  and  _301
REMARK  122  A    between atoms: _303  and  _305
REMARK  123  A    between atoms: _305  and  _306
REMARK  124  A    between atoms: _308  and  _310
REMARK  125  A    between atoms: _310  and  _311
REMARK  126  A    between atoms: _310  and  _313
REMARK  127  A    between atoms: _313  and  _314
REMARK  128  A    between atoms: _319  and  _320
REMARK  129  A    between atoms: _322  and  _324
REMARK  130  A    between atoms: _324  and  _325
REMARK  131  A    between atoms: _328  and  _330
REMARK  132  A    between atoms: _330  and  _331
REMARK  133  A    between atoms: _330  and  _333
REMARK  134  A    between atoms: _333  and  _334
REMARK  135  A    between atoms: _337  and  _339
REMARK  136  A    between atoms: _339  and  _340
REMARK  137  A    between atoms: _339  and  _342
REMARK  138  A    between atoms: _342  and  _343
REMARK  139  A    between atoms: _346  and  _348
REMARK  140  A    between atoms: _348  and  _349
REMARK  141  A    between atoms: _352  and  _354
REMARK  142  A    between atoms: _354  and  _355
REMARK  143  A    between atoms: _354  and  _357
REMARK  144  A    between atoms: _357  and  _358
REMARK  145  A    between atoms: _361  and  _363
REMARK  146  A    between atoms: _363  and  _364
REMARK  147  A    between atoms: _363  and  _366
REMARK  148  A    between atoms: _366  and  _367
REMARK  149  A    between atoms: _372  and  _374
REMARK  150  A    between atoms: _374  and  _375
REMARK  151  A    between atoms: _374  and  _377
REMARK  152  A    between atoms: _377  and  _378
REMARK  153  A    between atoms: _384  and  _386
REMARK  154  A    between atoms: _386  and  _387
REMARK  155  A    between atoms: _390  and  _392
REMARK  156  A    between atoms: _392  and  _393
REMARK  157  A    between atoms: _392  and  _395
REMARK  158  A    between atoms: _395  and  _396
REMARK  159  A    between atoms: _399  and  _401
REMARK  160  A    between atoms: _401  and  _402
REMARK  161  A    between atoms: _404  and  _406
REMARK  162  A    between atoms: _406  and  _407
REMARK  163  A    between atoms: _406  and  _409
REMARK  164  A    between atoms: _409  and  _410
REMARK  165  A    between atoms: _415  and  _417
REMARK  166  A    between atoms: _417  and  _418
REMARK  167  A    between atoms: _417  and  _420
REMARK  168  A    between atoms: _420  and  _421
REMARK  169  A    between atoms: _431  and  _433
REMARK  170  A    between atoms: _433  and  _434
REMARK  171  A    between atoms: _436  and  _438
REMARK  172  A    between atoms: _438  and  _439
REMARK  173  A    between atoms: _438  and  _441
REMARK  174  A    between atoms: _443  and  _445
REMARK  175  A    between atoms: _445  and  _446
REMARK  176  A    between atoms: _448  and  _450
REMARK  177  A    between atoms: _450  and  _451
REMARK  178  A    between atoms: _454  and  _456
REMARK  179  A    between atoms: _456  and  _457
REMARK  180  A    between atoms: _456  and  _459
REMARK  181  A    between atoms: _459  and  _460
REMARK  182  A    between atoms: _466  and  _468
REMARK  183  A    between atoms: _468  and  _469
REMARK  184  A    between atoms: _471  and  _473
REMARK  185  A    between atoms: _473  and  _474
REMARK  186  A    between atoms: _476  and  _478
REMARK  187  A    between atoms: _478  and  _479
REMARK  188  A    between atoms: _482  and  _484
REMARK  189  A    between atoms: _484  and  _485
REMARK  190  A    between atoms: _484  and  _487
REMARK  191  A    between atoms: _487  and  _488
REMARK  192  A    between atoms: _488  and  _489
REMARK  193  A    between atoms: _489  and  _490
REMARK  194  A    between atoms: _490  and  _491
REMARK  195  A    between atoms: _495  and  _497
REMARK  196  A    between atoms: _497  and  _498
REMARK  197  A    between atoms: _497  and  _500
REMARK  198  A    between atoms: _500  and  _501
REMARK  199  A    between atoms: _506  and  _507
REMARK  200  A    between atoms: _509  and  _511
REMARK  201  A    between atoms: _511  and  _512
REMARK  202  A    between atoms: _511  and  _514
REMARK  203  A    between atoms: _514  and  _515
REMARK  204  A    between atoms: _521  and  _523
REMARK  205  A    between atoms: _523  and  _524
REMARK  206  A    between atoms: _523  and  _526
REMARK  207  A    between atoms: _526  and  _527
REMARK  208  A    between atoms: _530  and  _532
REMARK  209  A    between atoms: _532  and  _533
REMARK  210  A    between atoms: _532  and  _535
REMARK  211  A    between atoms: _535  and  _536
REMARK  212  A    between atoms: _542  and  _544
REMARK  213  A    between atoms: _544  and  _545
REMARK  214  A    between atoms: _547  and  _549
REMARK  215  A    between atoms: _549  and  _550
REMARK  216  A    between atoms: _549  and  _552
REMARK  217  A    between atoms: _552  and  _553
REMARK  218  A    between atoms: _556  and  _558
REMARK  219  A    between atoms: _558  and  _559
REMARK  220  A    between atoms: _558  and  _561
REMARK  221  A    between atoms: _561  and  _562
REMARK                            x       y       z     vdW  Elec       q    Type
REMARK                         _______ _______ _______ _____ _____    ______ ____
ROOT
ATOM      1  O   HOH     1      27.662   8.686  11.796  0.00  0.00    +0.000 OA
ENDROOT
TORSDOF 0
REMARK  Name = ../refined-set-2016/4b1j/4b1j_pocket.pdb
REMARK  221 active torsions:
REMARK  status: ('A' for Active; 'I' for Inactive)
REMARK    1  A    between atoms: _1  and  _3
REMARK    2  A    between atoms: _3  and  _4
REMARK    3  A    between atoms: _3  and  _6
REMARK    4  A    between atoms: _6  and  _7
REMARK    5  A    between atoms: _7  and  _8
REMARK    6  A    between atoms: _11  and  _13
REMARK    7  A    between atoms: _13  and  _14
REMARK    8  A    between atoms: _16  and  _18
REMARK    9  A    between atoms: _18  and  _19
REMARK   10  A    between atoms: _18  and  _21
REMARK   11  A    between atoms: _21  and  _22
REMARK   12  A    between atoms: _25  and  _27
REMARK   13  A    between atoms: _27  and  _28
REMARK   14  A    between atoms: _27  and  _30
REMARK   15  A    between atoms: _30  and  _31
REMARK   16  A    between atoms: _34  and  _36
REMARK   17  A    between atoms: _36  and  _37
REMARK   18  A    between atoms: _36  and  _39
REMARK   19  A    between atoms: _39  and  _40
REMARK   20  A    between atoms: _40  and  _41
REMARK   21  A    between atoms: _44  and  _46
REMARK   22  A    between atoms: _46  and  _47
REMARK   23  A    between atoms: _46  and  _49
REMARK   24  A    between atoms: _49  and  _50
REMARK   25  A    between atoms: _50  and  _51
REMARK   26  A    between atoms: _54  and  _56
REMARK   27  A    between atoms: _56  and  _57
REMARK   28  A    between atoms: _56  and  _59
REMARK   29  A    between atoms: _59  and  _60
REMARK   30  A    between atoms: _65  and  _67
REMARK   31  A    between atoms: _67  and  _68
REMARK   32  A    between atoms: _67  and  _70
REMARK   33  A    between atoms: _73  and  _75
REMARK   34  A    between atoms: _75  and  _76
REMARK   35  A    between atoms: _75  and  _78
REMARK   36  A    between atoms: _78  and  _79
REMARK   37  A    between atoms: _82  and  _84
REMARK   38  A    between atoms: _84  and  _85
REMARK   39  A    between atoms: _84  and  _87
REMARK   40  A    between atoms: _87  and  _88
REMARK   41  A    between atoms: _94  and  _96
REMARK   42  A    between atoms: _96  and  _97
REMARK   43  A    between atoms: _100  and  _102
REMARK   44  A    between atoms: _102  and  _103
REMARK   45  A    between atoms: _102  and  _105
REMARK   46  A    between atoms: _105  and  _106
REMARK   47  A    between atoms: _111  and  _113
REMARK   48  A    between atoms: _113  and  _114
REMARK   49  A    between atoms: _113  and  _116
REMARK   50  A    between atoms: _116  and  _117
REMARK   51  A    between atoms: _117  and  _118
REMARK   52  A    between atoms: _118  and  _119
REMARK   53  A    between atoms: _128  and  _130
REMARK   54  A    between atoms: _130  and  _131
REMARK   55  A    between atoms: _130  and  _133
REMARK   56  A    between atoms: _133  and  _134
REMARK   57  A    between atoms: _140  and  _142
REMARK   58  A    between atoms: _142  and  _143
REMARK   59  A    between atoms: _142  and  _145
REMARK   60  A    between atoms: _148  and  _150
REMARK   61  A    between atoms: _150  and  _151
REMARK   62  A    between atoms: _153  and  _155
REMARK   63  A    between atoms: _155  and  _156
REMARK   64  A    between atoms: _158  and  _160
REMARK   65  A    between atoms: _160  and  _161
REMARK   66  A    between atoms: _163  and  _165
REMARK   67  A    between atoms: _165  and  _166
REMARK   68  A    between atoms: _165  and  _168
REMARK   69  A    between atoms: _171  and  _173
REMARK   70  A    between atoms: _173  and  _174
REMARK   71  A    between atoms: _176  and  _178
REMARK   72  A    between atoms: _178  and  _179
REMARK   73  A    between atoms: _178  and  _181
REMARK   74  A    between atoms: _181  and  _182
REMARK   75  A    between atoms: _185  and  _187
REMARK   76  A    between atoms: _187  and  _188
REMARK   77  A    between atoms: _187  and  _190
REMARK   78  A    between atoms: _193  and  _195
REMARK   79  A    between atoms: _195  and  _196
REMARK   80  A    between atoms: _195  and  _198
REMARK   81  A    between atoms: _198  and  _199
REMARK   82  A    between atoms: _199  and  _200
REMARK   83  A    between atoms: _205  and  _207
REMARK   84  A    between atoms: _207  and  _208
REMARK   85  A    between atoms: _207  and  _210
REMARK   86  A    between atoms: _210  and  _211
REMARK   87  A    between atoms: _211  and  _212
REMARK   88  A    between atoms: _215  and  _217
REMARK   89  A    between atoms: _217  and  _218
REMARK   90  A    between atoms: _217  and  _220
REMARK   91  A    between atoms: _220  and  _221
REMARK   92  A    between atoms: _221  and  _222
REMARK   93  A    between atoms: _225  and  _227
REMARK   94  A    between atoms: _227  and  _228
REMARK   95  A    between atoms: _227  and  _230
REMARK   96  A    between atoms: _230  and  _231
REMARK   97  A    between atoms: _234  and  _236
REMARK   98  A    between atoms: _236  and  _237
REMARK   99  A    between atoms: _236  and  _239
REMARK  100  A    between atoms: _239  and  _240
REMARK  101  A    between atoms: _240  and  _241
REMARK  102  A    between atoms: _241  and  _242
REMARK  103  A    between atoms: _251  and  _253
REMARK  104  A    between atoms: _253  and  _254
REMARK  105  A    between atoms: _253  and  _256
REMARK  106  A    between atoms: _256  and  _257
REMARK  107  A    between atoms: _263  and  _265
REMARK  108  A    between atoms: _265  and  _266
REMARK  109  A    between atoms: _265  and  _268
REMARK  110  A    between atoms: _268  and  _269
REMARK  111  A    between atoms: _272  and  _274
REMARK  112  A    between atoms: _274  and  _275
REMARK  113  A    between atoms: _274  and  _277
REMARK  114  A    between atoms: _277  and  _278
REMARK  115  A    between atoms: _278  and  _279
REMARK  116  A    between atoms: _279  and  _280
REMARK  117  A    between atoms: _289  and  _291
REMARK  118  A    between atoms: _291  and  _292
REMARK  119  A    between atoms: _291  and  _294
REMARK  120  A    between atoms: _294  and  _295
REMARK  121  A    between atoms: _300  and  _301
REMARK  122  A    between atoms: _303  and  _305
REMARK  123  A    between atoms: _305  and  _306
REMARK  124  A    between atoms: _308  and  _310
REMARK  125  A    between atoms: _310  and  _311
REMARK  126  A    between atoms: _310  and  _313
REMARK  127  A    between atoms: _313  and  _314
REMARK  128  A    between atoms: _319  and  _320
REMARK  129  A    between atoms: _322  and  _324
REMARK  130  A    between atoms: _324  and  _325
REMARK  131  A    between atoms: _328  and  _330
REMARK  132  A    between atoms: _330  and  _331
REMARK  133  A    between atoms: _330  and  _333
REMARK  134  A    between atoms: _333  and  _334
REMARK  135  A    between atoms: _337  and  _339
REMARK  136  A    between atoms: _339  and  _340
REMARK  137  A    between atoms: _339  and  _342
REMARK  138  A    between atoms: _342  and  _343
REMARK  139  A    between atoms: _346  and  _348
REMARK  140  A    between atoms: _348  and  _349
REMARK  141  A    between atoms: _352  and  _354
REMARK  142  A    between atoms: _354  and  _355
REMARK  143  A    between atoms: _354  and  _357
REMARK  144  A    between atoms: _357  and  _358
REMARK  145  A    between atoms: _361  and  _363
REMARK  146  A    between atoms: _363  and  _364
REMARK  147  A    between atoms: _363  and  _366
REMARK  148  A    between atoms: _366  and  _367
REMARK  149  A    between atoms: _372  and  _374
REMARK  150  A    between atoms: _374  and  _375
REMARK  151  A    between atoms: _374  and  _377
REMARK  152  A    between atoms: _377  and  _378
REMARK  153  A    between atoms: _384  and  _386
REMARK  154  A    between atoms: _386  and  _387
REMARK  155  A    between atoms: _390  and  _392
REMARK  156  A    between atoms: _392  and  _393
REMARK  157  A    between atoms: _392  and  _395
REMARK  158  A    between atoms: _395  and  _396
REMARK  159  A    between atoms: _399  and  _401
REMARK  160  A    between atoms: _401  and  _402
REMARK  161  A    between atoms: _404  and  _406
REMARK  162  A    between atoms: _406  and  _407
REMARK  163  A    between atoms: _406  and  _409
REMARK  164  A    between atoms: _409  and  _410
REMARK  165  A    between atoms: _415  and  _417
REMARK  166  A    between atoms: _417  and  _418
REMARK  167  A    between atoms: _417  and  _420
REMARK  168  A    between atoms: _420  and  _421
REMARK  169  A    between atoms: _431  and  _433
REMARK  170  A    between atoms: _433  and  _434
REMARK  171  A    between atoms: _436  and  _438
REMARK  172  A    between atoms: _438  and  _439
REMARK  173  A    between atoms: _438  and  _441
REMARK  174  A    between atoms: _443  and  _445
REMARK  175  A    between atoms: _445  and  _446
REMARK  176  A    between atoms: _448  and  _450
REMARK  177  A    between atoms: _450  and  _451
REMARK  178  A    between atoms: _454  and  _456
REMARK  179  A    between atoms: _456  and  _457
REMARK  180  A    between atoms: _456  and  _459
REMARK  181  A    between atoms: _459  and  _460
REMARK  182  A    between atoms: _466  and  _468
REMARK  183  A    between atoms: _468  and  _469
REMARK  184  A    between atoms: _471  and  _473
REMARK  185  A    between atoms: _473  and  _474
REMARK  186  A    between atoms: _476  and  _478
REMARK  187  A    between atoms: _478  and  _479
REMARK  188  A    between atoms: _482  and  _484
REMARK  189  A    between atoms: _484  and  _485
REMARK  190  A    between atoms: _484  and  _487
REMARK  191  A    between atoms: _487  and  _488
REMARK  192  A    between atoms: _488  and  _489
REMARK  193  A    between atoms: _489  and  _490
REMARK  194  A    between atoms: _490  and  _491
REMARK  195  A    between atoms: _495  and  _497
REMARK  196  A    between atoms: _497  and  _498
REMARK  197  A    between atoms: _497  and  _500
REMARK  198  A    between atoms: _500  and  _501
REMARK  199  A    between atoms: _506  and  _507
REMARK  200  A    between atoms: _509  and  _511
REMARK  201  A    between atoms: _511  and  _512
REMARK  202  A    between atoms: _511  and  _514
REMARK  203  A    between atoms: _514  and  _515
REMARK  204  A    between atoms: _521  and  _523
REMARK  205  A    between atoms: _523  and  _524
REMARK  206  A    between atoms: _523  and  _526
REMARK  207  A    between atoms: _526  and  _527
REMARK  208  A    between atoms: _530  and  _532
REMARK  209  A    between atoms: _532  and  _533
REMARK  210  A    between atoms: _532  and  _535
REMARK  211  A    between atoms: _535  and  _536
REMARK  212  A    between atoms: _542  and  _544
REMARK  213  A    between atoms: _544  and  _545
REMARK  214  A    between atoms: _547  and  _549
REMARK  215  A    between atoms: _549  and  _550
REMARK  216  A    between atoms: _549  and  _552
REMARK  217  A    between atoms: _552  and  _553
REMARK  218  A    between atoms: _556  and  _558
REMARK  219  A    between atoms: _558  and  _559
REMARK  220  A    between atoms: _558  and  _561
REMARK  221  A    between atoms: _561  and  _562
REMARK                            x       y       z     vdW  Elec       q    Type
REMARK                         _______ _______ _______ _____ _____    ______ ____
ROOT
ATOM      1  O   HOH     1      27.596  11.379  10.851  0.00  0.00    +0.000 OA
ENDROOT
TORSDOF 0
REMARK  Name = ../refined-set-2016/4b1j/4b1j_pocket.pdb
REMARK  221 active torsions:
REMARK  status: ('A' for Active; 'I' for Inactive)
REMARK    1  A    between atoms: _1  and  _3
REMARK    2  A    between atoms: _3  and  _4
REMARK    3  A    between atoms: _3  and  _6
REMARK    4  A    between atoms: _6  and  _7
REMARK    5  A    between atoms: _7  and  _8
REMARK    6  A    between atoms: _11  and  _13
REMARK    7  A    between atoms: _13  and  _14
REMARK    8  A    between atoms: _16  and  _18
REMARK    9  A    between atoms: _18  and  _19
REMARK   10  A    between atoms: _18  and  _21
REMARK   11  A    between atoms: _21  and  _22
REMARK   12  A    between atoms: _25  and  _27
REMARK   13  A    between atoms: _27  and  _28
REMARK   14  A    between atoms: _27  and  _30
REMARK   15  A    between atoms: _30  and  _31
REMARK   16  A    between atoms: _34  and  _36
REMARK   17  A    between atoms: _36  and  _37
REMARK   18  A    between atoms: _36  and  _39
REMARK   19  A    between atoms: _39  and  _40
REMARK   20  A    between atoms: _40  and  _41
REMARK   21  A    between atoms: _44  and  _46
REMARK   22  A    between atoms: _46  and  _47
REMARK   23  A    between atoms: _46  and  _49
REMARK   24  A    between atoms: _49  and  _50
REMARK   25  A    between atoms: _50  and  _51
REMARK   26  A    between atoms: _54  and  _56
REMARK   27  A    between atoms: _56  and  _57
REMARK   28  A    between atoms: _56  and  _59
REMARK   29  A    between atoms: _59  and  _60
REMARK   30  A    between atoms: _65  and  _67
REMARK   31  A    between atoms: _67  and  _68
REMARK   32  A    between atoms: _67  and  _70
REMARK   33  A    between atoms: _73  and  _75
REMARK   34  A    between atoms: _75  and  _76
REMARK   35  A    between atoms: _75  and  _78
REMARK   36  A    between atoms: _78  and  _79
REMARK   37  A    between atoms: _82  and  _84
REMARK   38  A    between atoms: _84  and  _85
REMARK   39  A    between atoms: _84  and  _87
REMARK   40  A    between atoms: _87  and  _88
REMARK   41  A    between atoms: _94  and  _96
REMARK   42  A    between atoms: _96  and  _97
REMARK   43  A    between atoms: _100  and  _102
REMARK   44  A    between atoms: _102  and  _103
REMARK   45  A    between atoms: _102  and  _105
REMARK   46  A    between atoms: _105  and  _106
REMARK   47  A    between atoms: _111  and  _113
REMARK   48  A    between atoms: _113  and  _114
REMARK   49  A    between atoms: _113  and  _116
REMARK   50  A    between atoms: _116  and  _117
REMARK   51  A    between atoms: _117  and  _118
REMARK   52  A    between atoms: _118  and  _119
REMARK   53  A    between atoms: _128  and  _130
REMARK   54  A    between atoms: _130  and  _131
REMARK   55  A    between atoms: _130  and  _133
REMARK   56  A    between atoms: _133  and  _134
REMARK   57  A    between atoms: _140  and  _142
REMARK   58  A    between atoms: _142  and  _143
REMARK   59  A    between atoms: _142  and  _145
REMARK   60  A    between atoms: _148  and  _150
REMARK   61  A    between atoms: _150  and  _151
REMARK   62  A    between atoms: _153  and  _155
REMARK   63  A    between atoms: _155  and  _156
REMARK   64  A    between atoms: _158  and  _160
REMARK   65  A    between atoms: _160  and  _161
REMARK   66  A    between atoms: _163  and  _165
REMARK   67  A    between atoms: _165  and  _166
REMARK   68  A    between atoms: _165  and  _168
REMARK   69  A    between atoms: _171  and  _173
REMARK   70  A    between atoms: _173  and  _174
REMARK   71  A    between atoms: _176  and  _178
REMARK   72  A    between atoms: _178  and  _179
REMARK   73  A    between atoms: _178  and  _181
REMARK   74  A    between atoms: _181  and  _182
REMARK   75  A    between atoms: _185  and  _187
REMARK   76  A    between atoms: _187  and  _188
REMARK   77  A    between atoms: _187  and  _190
REMARK   78  A    between atoms: _193  and  _195
REMARK   79  A    between atoms: _195  and  _196
REMARK   80  A    between atoms: _195  and  _198
REMARK   81  A    between atoms: _198  and  _199
REMARK   82  A    between atoms: _199  and  _200
REMARK   83  A    between atoms: _205  and  _207
REMARK   84  A    between atoms: _207  and  _208
REMARK   85  A    between atoms: _207  and  _210
REMARK   86  A    between atoms: _210  and  _211
REMARK   87  A    between atoms: _211  and  _212
REMARK   88  A    between atoms: _215  and  _217
REMARK   89  A    between atoms: _217  and  _218
REMARK   90  A    between atoms: _217  and  _220
REMARK   91  A    between atoms: _220  and  _221
REMARK   92  A    between atoms: _221  and  _222
REMARK   93  A    between atoms: _225  and  _227
REMARK   94  A    between atoms: _227  and  _228
REMARK   95  A    between atoms: _227  and  _230
REMARK   96  A    between atoms: _230  and  _231
REMARK   97  A    between atoms: _234  and  _236
REMARK   98  A    between atoms: _236  and  _237
REMARK   99  A    between atoms: _236  and  _239
REMARK  100  A    between atoms: _239  and  _240
REMARK  101  A    between atoms: _240  and  _241
REMARK  102  A    between atoms: _241  and  _242
REMARK  103  A    between atoms: _251  and  _253
REMARK  104  A    between atoms: _253  and  _254
REMARK  105  A    between atoms: _253  and  _256
REMARK  106  A    between atoms: _256  and  _257
REMARK  107  A    between atoms: _263  and  _265
REMARK  108  A    between atoms: _265  and  _266
REMARK  109  A    between atoms: _265  and  _268
REMARK  110  A    between atoms: _268  and  _269
REMARK  111  A    between atoms: _272  and  _274
REMARK  112  A    between atoms: _274  and  _275
REMARK  113  A    between atoms: _274  and  _277
REMARK  114  A    between atoms: _277  and  _278
REMARK  115  A    between atoms: _278  and  _279
REMARK  116  A    between atoms: _279  and  _280
REMARK  117  A    between atoms: _289  and  _291
REMARK  118  A    between atoms: _291  and  _292
REMARK  119  A    between atoms: _291  and  _294
REMARK  120  A    between atoms: _294  and  _295
REMARK  121  A    between atoms: _300  and  _301
REMARK  122  A    between atoms: _303  and  _305
REMARK  123  A    between atoms: _305  and  _306
REMARK  124  A    between atoms: _308  and  _310
REMARK  125  A    between atoms: _310  and  _311
REMARK  126  A    between atoms: _310  and  _313
REMARK  127  A    between atoms: _313  and  _314
REMARK  128  A    between atoms: _319  and  _320
REMARK  129  A    between atoms: _322  and  _324
REMARK  130  A    between atoms: _324  and  _325
REMARK  131  A    between atoms: _328  and  _330
REMARK  132  A    between atoms: _330  and  _331
REMARK  133  A    between atoms: _330  and  _333
REMARK  134  A    between atoms: _333  and  _334
REMARK  135  A    between atoms: _337  and  _339
REMARK  136  A    between atoms: _339  and  _340
REMARK  137  A    between atoms: _339  and  _342
REMARK  138  A    between atoms: _342  and  _343
REMARK  139  A    between atoms: _346  and  _348
REMARK  140  A    between atoms: _348  and  _349
REMARK  141  A    between atoms: _352  and  _354
REMARK  142  A    between atoms: _354  and  _355
REMARK  143  A    between atoms: _354  and  _357
REMARK  144  A    between atoms: _357  and  _358
REMARK  145  A    between atoms: _361  and  _363
REMARK  146  A    between atoms: _363  and  _364
REMARK  147  A    between atoms: _363  and  _366
REMARK  148  A    between atoms: _366  and  _367
REMARK  149  A    between atoms: _372  and  _374
REMARK  150  A    between atoms: _374  and  _375
REMARK  151  A    between atoms: _374  and  _377
REMARK  152  A    between atoms: _377  and  _378
REMARK  153  A    between atoms: _384  and  _386
REMARK  154  A    between atoms: _386  and  _387
REMARK  155  A    between atoms: _390  and  _392
REMARK  156  A    between atoms: _392  and  _393
REMARK  157  A    between atoms: _392  and  _395
REMARK  158  A    between atoms: _395  and  _396
REMARK  159  A    between atoms: _399  and  _401
REMARK  160  A    between atoms: _401  and  _402
REMARK  161  A    between atoms: _404  and  _406
REMARK  162  A    between atoms: _406  and  _407
REMARK  163  A    between atoms: _406  and  _409
REMARK  164  A    between atoms: _409  and  _410
REMARK  165  A    between atoms: _415  and  _417
REMARK  166  A    between atoms: _417  and  _418
REMARK  167  A    between atoms: _417  and  _420
REMARK  168  A    between atoms: _420  and  _421
REMARK  169  A    between atoms: _431  and  _433
REMARK  170  A    between atoms: _433  and  _434
REMARK  171  A    between atoms: _436  and  _438
REMARK  172  A    between atoms: _438  and  _439
REMARK  173  A    between atoms: _438  and  _441
REMARK  174  A    between atoms: _443  and  _445
REMARK  175  A    between atoms: _445  and  _446
REMARK  176  A    between atoms: _448  and  _450
REMARK  177  A    between atoms: _450  and  _451
REMARK  178  A    between atoms: _454  and  _456
REMARK  179  A    between atoms: _456  and  _457
REMARK  180  A    between atoms: _456  and  _459
REMARK  181  A    between atoms: _459  and  _460
REMARK  182  A    between atoms: _466  and  _468
REMARK  183  A    between atoms: _468  and  _469
REMARK  184  A    between atoms: _471  and  _473
REMARK  185  A    between atoms: _473  and  _474
REMARK  186  A    between atoms: _476  and  _478
REMARK  187  A    between atoms: _478  and  _479
REMARK  188  A    between atoms: _482  and  _484
REMARK  189  A    between atoms: _484  and  _485
REMARK  190  A    between atoms: _484  and  _487
REMARK  191  A    between atoms: _487  and  _488
REMARK  192  A    between atoms: _488  and  _489
REMARK  193  A    between atoms: _489  and  _490
REMARK  194  A    between atoms: _490  and  _491
REMARK  195  A    between atoms: _495  and  _497
REMARK  196  A    between atoms: _497  and  _498
REMARK  197  A    between atoms: _497  and  _500
REMARK  198  A    between atoms: _500  and  _501
REMARK  199  A    between atoms: _506  and  _507
REMARK  200  A    between atoms: _509  and  _511
REMARK  201  A    between atoms: _511  and  _512
REMARK  202  A    between atoms: _511  and  _514
REMARK  203  A    between atoms: _514  and  _515
REMARK  204  A    between atoms: _521  and  _523
REMARK  205  A    between atoms: _523  and  _524
REMARK  206  A    between atoms: _523  and  _526
REMARK  207  A    between atoms: _526  and  _527
REMARK  208  A    between atoms: _530  and  _532
REMARK  209  A    between atoms: _532  and  _533
REMARK  210  A    between atoms: _532  and  _535
REMARK  211  A    between atoms: _535  and  _536
REMARK  212  A    between atoms: _542  and  _544
REMARK  213  A    between atoms: _544  and  _545
REMARK  214  A    between atoms: _547  and  _549
REMARK  215  A    between atoms: _549  and  _550
REMARK  216  A    between atoms: _549  and  _552
REMARK  217  A    between atoms: _552  and  _553
REMARK  218  A    between atoms: _556  and  _558
REMARK  219  A    between atoms: _558  and  _559
REMARK  220  A    between atoms: _558  and  _561
REMARK  221  A    between atoms: _561  and  _562
REMARK                            x       y       z     vdW  Elec       q    Type
REMARK                         _______ _______ _______ _____ _____    ______ ____
ROOT
ATOM      1  O   HOH     1      30.224   9.347   7.121  0.00  0.00    +0.000 OA
ENDROOT
TORSDOF 0
REMARK  Name = ../refined-set-2016/4b1j/4b1j_pocket.pdb
REMARK  221 active torsions:
REMARK  status: ('A' for Active; 'I' for Inactive)
REMARK    1  A    between atoms: _1  and  _3
REMARK    2  A    between atoms: _3  and  _4
REMARK    3  A    between atoms: _3  and  _6
REMARK    4  A    between atoms: _6  and  _7
REMARK    5  A    between atoms: _7  and  _8
REMARK    6  A    between atoms: _11  and  _13
REMARK    7  A    between atoms: _13  and  _14
REMARK    8  A    between atoms: _16  and  _18
REMARK    9  A    between atoms: _18  and  _19
REMARK   10  A    between atoms: _18  and  _21
REMARK   11  A    between atoms: _21  and  _22
REMARK   12  A    between atoms: _25  and  _27
REMARK   13  A    between atoms: _27  and  _28
REMARK   14  A    between atoms: _27  and  _30
REMARK   15  A    between atoms: _30  and  _31
REMARK   16  A    between atoms: _34  and  _36
REMARK   17  A    between atoms: _36  and  _37
REMARK   18  A    between atoms: _36  and  _39
REMARK   19  A    between atoms: _39  and  _40
REMARK   20  A    between atoms: _40  and  _41
REMARK   21  A    between atoms: _44  and  _46
REMARK   22  A    between atoms: _46  and  _47
REMARK   23  A    between atoms: _46  and  _49
REMARK   24  A    between atoms: _49  and  _50
REMARK   25  A    between atoms: _50  and  _51
REMARK   26  A    between atoms: _54  and  _56
REMARK   27  A    between atoms: _56  and  _57
REMARK   28  A    between atoms: _56  and  _59
REMARK   29  A    between atoms: _59  and  _60
REMARK   30  A    between atoms: _65  and  _67
REMARK   31  A    between atoms: _67  and  _68
REMARK   32  A    between atoms: _67  and  _70
REMARK   33  A    between atoms: _73  and  _75
REMARK   34  A    between atoms: _75  and  _76
REMARK   35  A    between atoms: _75  and  _78
REMARK   36  A    between atoms: _78  and  _79
REMARK   37  A    between atoms: _82  and  _84
REMARK   38  A    between atoms: _84  and  _85
REMARK   39  A    between atoms: _84  and  _87
REMARK   40  A    between atoms: _87  and  _88
REMARK   41  A    between atoms: _94  and  _96
REMARK   42  A    between atoms: _96  and  _97
REMARK   43  A    between atoms: _100  and  _102
REMARK   44  A    between atoms: _102  and  _103
REMARK   45  A    between atoms: _102  and  _105
REMARK   46  A    between atoms: _105  and  _106
REMARK   47  A    between atoms: _111  and  _113
REMARK   48  A    between atoms: _113  and  _114
REMARK   49  A    between atoms: _113  and  _116
REMARK   50  A    between atoms: _116  and  _117
REMARK   51  A    between atoms: _117  and  _118
REMARK   52  A    between atoms: _118  and  _119
REMARK   53  A    between atoms: _128  and  _130
REMARK   54  A    between atoms: _130  and  _131
REMARK   55  A    between atoms: _130  and  _133
REMARK   56  A    between atoms: _133  and  _134
REMARK   57  A    between atoms: _140  and  _142
REMARK   58  A    between atoms: _142  and  _143
REMARK   59  A    between atoms: _142  and  _145
REMARK   60  A    between atoms: _148  and  _150
REMARK   61  A    between atoms: _150  and  _151
REMARK   62  A    between atoms: _153  and  _155
REMARK   63  A    between atoms: _155  and  _156
REMARK   64  A    between atoms: _158  and  _160
REMARK   65  A    between atoms: _160  and  _161
REMARK   66  A    between atoms: _163  and  _165
REMARK   67  A    between atoms: _165  and  _166
REMARK   68  A    between atoms: _165  and  _168
REMARK   69  A    between atoms: _171  and  _173
REMARK   70  A    between atoms: _173  and  _174
REMARK   71  A    between atoms: _176  and  _178
REMARK   72  A    between atoms: _178  and  _179
REMARK   73  A    between atoms: _178  and  _181
REMARK   74  A    between atoms: _181  and  _182
REMARK   75  A    between atoms: _185  and  _187
REMARK   76  A    between atoms: _187  and  _188
REMARK   77  A    between atoms: _187  and  _190
REMARK   78  A    between atoms: _193  and  _195
REMARK   79  A    between atoms: _195  and  _196
REMARK   80  A    between atoms: _195  and  _198
REMARK   81  A    between atoms: _198  and  _199
REMARK   82  A    between atoms: _199  and  _200
REMARK   83  A    between atoms: _205  and  _207
REMARK   84  A    between atoms: _207  and  _208
REMARK   85  A    between atoms: _207  and  _210
REMARK   86  A    between atoms: _210  and  _211
REMARK   87  A    between atoms: _211  and  _212
REMARK   88  A    between atoms: _215  and  _217
REMARK   89  A    between atoms: _217  and  _218
REMARK   90  A    between atoms: _217  and  _220
REMARK   91  A    between atoms: _220  and  _221
REMARK   92  A    between atoms: _221  and  _222
REMARK   93  A    between atoms: _225  and  _227
REMARK   94  A    between atoms: _227  and  _228
REMARK   95  A    between atoms: _227  and  _230
REMARK   96  A    between atoms: _230  and  _231
REMARK   97  A    between atoms: _234  and  _236
REMARK   98  A    between atoms: _236  and  _237
REMARK   99  A    between atoms: _236  and  _239
REMARK  100  A    between atoms: _239  and  _240
REMARK  101  A    between atoms: _240  and  _241
REMARK  102  A    between atoms: _241  and  _242
REMARK  103  A    between atoms: _251  and  _253
REMARK  104  A    between atoms: _253  and  _254
REMARK  105  A    between atoms: _253  and  _256
REMARK  106  A    between atoms: _256  and  _257
REMARK  107  A    between atoms: _263  and  _265
REMARK  108  A    between atoms: _265  and  _266
REMARK  109  A    between atoms: _265  and  _268
REMARK  110  A    between atoms: _268  and  _269
REMARK  111  A    between atoms: _272  and  _274
REMARK  112  A    between atoms: _274  and  _275
REMARK  113  A    between atoms: _274  and  _277
REMARK  114  A    between atoms: _277  and  _278
REMARK  115  A    between atoms: _278  and  _279
REMARK  116  A    between atoms: _279  and  _280
REMARK  117  A    between atoms: _289  and  _291
REMARK  118  A    between atoms: _291  and  _292
REMARK  119  A    between atoms: _291  and  _294
REMARK  120  A    between atoms: _294  and  _295
REMARK  121  A    between atoms: _300  and  _301
REMARK  122  A    between atoms: _303  and  _305
REMARK  123  A    between atoms: _305  and  _306
REMARK  124  A    between atoms: _308  and  _310
REMARK  125  A    between atoms: _310  and  _311
REMARK  126  A    between atoms: _310  and  _313
REMARK  127  A    between atoms: _313  and  _314
REMARK  128  A    between atoms: _319  and  _320
REMARK  129  A    between atoms: _322  and  _324
REMARK  130  A    between atoms: _324  and  _325
REMARK  131  A    between atoms: _328  and  _330
REMARK  132  A    between atoms: _330  and  _331
REMARK  133  A    between atoms: _330  and  _333
REMARK  134  A    between atoms: _333  and  _334
REMARK  135  A    between atoms: _337  and  _339
REMARK  136  A    between atoms: _339  and  _340
REMARK  137  A    between atoms: _339  and  _342
REMARK  138  A    between atoms: _342  and  _343
REMARK  139  A    between atoms: _346  and  _348
REMARK  140  A    between atoms: _348  and  _349
REMARK  141  A    between atoms: _352  and  _354
REMARK  142  A    between atoms: _354  and  _355
REMARK  143  A    between atoms: _354  and  _357
REMARK  144  A    between atoms: _357  and  _358
REMARK  145  A    between atoms: _361  and  _363
REMARK  146  A    between atoms: _363  and  _364
REMARK  147  A    between atoms: _363  and  _366
REMARK  148  A    between atoms: _366  and  _367
REMARK  149  A    between atoms: _372  and  _374
REMARK  150  A    between atoms: _374  and  _375
REMARK  151  A    between atoms: _374  and  _377
REMARK  152  A    between atoms: _377  and  _378
REMARK  153  A    between atoms: _384  and  _386
REMARK  154  A    between atoms: _386  and  _387
REMARK  155  A    between atoms: _390  and  _392
REMARK  156  A    between atoms: _392  and  _393
REMARK  157  A    between atoms: _392  and  _395
REMARK  158  A    between atoms: _395  and  _396
REMARK  159  A    between atoms: _399  and  _401
REMARK  160  A    between atoms: _401  and  _402
REMARK  161  A    between atoms: _404  and  _406
REMARK  162  A    between atoms: _406  and  _407
REMARK  163  A    between atoms: _406  and  _409
REMARK  164  A    between atoms: _409  and  _410
REMARK  165  A    between atoms: _415  and  _417
REMARK  166  A    between atoms: _417  and  _418
REMARK  167  A    between atoms: _417  and  _420
REMARK  168  A    between atoms: _420  and  _421
REMARK  169  A    between atoms: _431  and  _433
REMARK  170  A    between atoms: _433  and  _434
REMARK  171  A    between atoms: _436  and  _438
REMARK  172  A    between atoms: _438  and  _439
REMARK  173  A    between atoms: _438  and  _441
REMARK  174  A    between atoms: _443  and  _445
REMARK  175  A    between atoms: _445  and  _446
REMARK  176  A    between atoms: _448  and  _450
REMARK  177  A    between atoms: _450  and  _451
REMARK  178  A    between atoms: _454  and  _456
REMARK  179  A    between atoms: _456  and  _457
REMARK  180  A    between atoms: _456  and  _459
REMARK  181  A    between atoms: _459  and  _460
REMARK  182  A    between atoms: _466  and  _468
REMARK  183  A    between atoms: _468  and  _469
REMARK  184  A    between atoms: _471  and  _473
REMARK  185  A    between atoms: _473  and  _474
REMARK  186  A    between atoms: _476  and  _478
REMARK  187  A    between atoms: _478  and  _479
REMARK  188  A    between atoms: _482  and  _484
REMARK  189  A    between atoms: _484  and  _485
REMARK  190  A    between atoms: _484  and  _487
REMARK  191  A    between atoms: _487  and  _488
REMARK  192  A    between atoms: _488  and  _489
REMARK  193  A    between atoms: _489  and  _490
REMARK  194  A    between atoms: _490  and  _491
REMARK  195  A    between atoms: _495  and  _497
REMARK  196  A    between atoms: _497  and  _498
REMARK  197  A    between atoms: _497  and  _500
REMARK  198  A    between atoms: _500  and  _501
REMARK  199  A    between atoms: _506  and  _507
REMARK  200  A    between atoms: _509  and  _511
REMARK  201  A    between atoms: _511  and  _512
REMARK  202  A    between atoms: _511  and  _514
REMARK  203  A    between atoms: _514  and  _515
REMARK  204  A    between atoms: _521  and  _523
REMARK  205  A    between atoms: _523  and  _524
REMARK  206  A    between atoms: _523  and  _526
REMARK  207  A    between atoms: _526  and  _527
REMARK  208  A    between atoms: _530  and  _532
REMARK  209  A    between atoms: _532  and  _533
REMARK  210  A    between atoms: _532  and  _535
REMARK  211  A    between atoms: _535  and  _536
REMARK  212  A    between atoms: _542  and  _544
REMARK  213  A    between atoms: _544  and  _545
REMARK  214  A    between atoms: _547  and  _549
REMARK  215  A    between atoms: _549  and  _550
REMARK  216  A    between atoms: _549  and  _552
REMARK  217  A    between atoms: _552  and  _553
REMARK  218  A    between atoms: _556  and  _558
REMARK  219  A    between atoms: _558  and  _559
REMARK  220  A    between atoms: _558  and  _561
REMARK  221  A    between atoms: _561  and  _562
REMARK                            x       y       z     vdW  Elec       q    Type
REMARK                         _______ _______ _______ _____ _____    ______ ____
ROOT
ATOM      1  O   HOH     1      30.527   7.494   3.229  0.00  0.00    +0.000 OA
ENDROOT
TORSDOF 0
REMARK  Name = ../refined-set-2016/4b1j/4b1j_pocket.pdb
REMARK  221 active torsions:
REMARK  status: ('A' for Active; 'I' for Inactive)
REMARK    1  A    between atoms: _1  and  _3
REMARK    2  A    between atoms: _3  and  _4
REMARK    3  A    between atoms: _3  and  _6
REMARK    4  A    between atoms: _6  and  _7
REMARK    5  A    between atoms: _7  and  _8
REMARK    6  A    between atoms: _11  and  _13
REMARK    7  A    between atoms: _13  and  _14
REMARK    8  A    between atoms: _16  and  _18
REMARK    9  A    between atoms: _18  and  _19
REMARK   10  A    between atoms: _18  and  _21
REMARK   11  A    between atoms: _21  and  _22
REMARK   12  A    between atoms: _25  and  _27
REMARK   13  A    between atoms: _27  and  _28
REMARK   14  A    between atoms: _27  and  _30
REMARK   15  A    between atoms: _30  and  _31
REMARK   16  A    between atoms: _34  and  _36
REMARK   17  A    between atoms: _36  and  _37
REMARK   18  A    between atoms: _36  and  _39
REMARK   19  A    between atoms: _39  and  _40
REMARK   20  A    between atoms: _40  and  _41
REMARK   21  A    between atoms: _44  and  _46
REMARK   22  A    between atoms: _46  and  _47
REMARK   23  A    between atoms: _46  and  _49
REMARK   24  A    between atoms: _49  and  _50
REMARK   25  A    between atoms: _50  and  _51
REMARK   26  A    between atoms: _54  and  _56
REMARK   27  A    between atoms: _56  and  _57
REMARK   28  A    between atoms: _56  and  _59
REMARK   29  A    between atoms: _59  and  _60
REMARK   30  A    between atoms: _65  and  _67
REMARK   31  A    between atoms: _67  and  _68
REMARK   32  A    between atoms: _67  and  _70
REMARK   33  A    between atoms: _73  and  _75
REMARK   34  A    between atoms: _75  and  _76
REMARK   35  A    between atoms: _75  and  _78
REMARK   36  A    between atoms: _78  and  _79
REMARK   37  A    between atoms: _82  and  _84
REMARK   38  A    between atoms: _84  and  _85
REMARK   39  A    between atoms: _84  and  _87
REMARK   40  A    between atoms: _87  and  _88
REMARK   41  A    between atoms: _94  and  _96
REMARK   42  A    between atoms: _96  and  _97
REMARK   43  A    between atoms: _100  and  _102
REMARK   44  A    between atoms: _102  and  _103
REMARK   45  A    between atoms: _102  and  _105
REMARK   46  A    between atoms: _105  and  _106
REMARK   47  A    between atoms: _111  and  _113
REMARK   48  A    between atoms: _113  and  _114
REMARK   49  A    between atoms: _113  and  _116
REMARK   50  A    between atoms: _116  and  _117
REMARK   51  A    between atoms: _117  and  _118
REMARK   52  A    between atoms: _118  and  _119
REMARK   53  A    between atoms: _128  and  _130
REMARK   54  A    between atoms: _130  and  _131
REMARK   55  A    between atoms: _130  and  _133
REMARK   56  A    between atoms: _133  and  _134
REMARK   57  A    between atoms: _140  and  _142
REMARK   58  A    between atoms: _142  and  _143
REMARK   59  A    between atoms: _142  and  _145
REMARK   60  A    between atoms: _148  and  _150
REMARK   61  A    between atoms: _150  and  _151
REMARK   62  A    between atoms: _153  and  _155
REMARK   63  A    between atoms: _155  and  _156
REMARK   64  A    between atoms: _158  and  _160
REMARK   65  A    between atoms: _160  and  _161
REMARK   66  A    between atoms: _163  and  _165
REMARK   67  A    between atoms: _165  and  _166
REMARK   68  A    between atoms: _165  and  _168
REMARK   69  A    between atoms: _171  and  _173
REMARK   70  A    between atoms: _173  and  _174
REMARK   71  A    between atoms: _176  and  _178
REMARK   72  A    between atoms: _178  and  _179
REMARK   73  A    between atoms: _178  and  _181
REMARK   74  A    between atoms: _181  and  _182
REMARK   75  A    between atoms: _185  and  _187
REMARK   76  A    between atoms: _187  and  _188
REMARK   77  A    between atoms: _187  and  _190
REMARK   78  A    between atoms: _193  and  _195
REMARK   79  A    between atoms: _195  and  _196
REMARK   80  A    between atoms: _195  and  _198
REMARK   81  A    between atoms: _198  and  _199
REMARK   82  A    between atoms: _199  and  _200
REMARK   83  A    between atoms: _205  and  _207
REMARK   84  A    between atoms: _207  and  _208
REMARK   85  A    between atoms: _207  and  _210
REMARK   86  A    between atoms: _210  and  _211
REMARK   87  A    between atoms: _211  and  _212
REMARK   88  A    between atoms: _215  and  _217
REMARK   89  A    between atoms: _217  and  _218
REMARK   90  A    between atoms: _217  and  _220
REMARK   91  A    between atoms: _220  and  _221
REMARK   92  A    between atoms: _221  and  _222
REMARK   93  A    between atoms: _225  and  _227
REMARK   94  A    between atoms: _227  and  _228
REMARK   95  A    between atoms: _227  and  _230
REMARK   96  A    between atoms: _230  and  _231
REMARK   97  A    between atoms: _234  and  _236
REMARK   98  A    between atoms: _236  and  _237
REMARK   99  A    between atoms: _236  and  _239
REMARK  100  A    between atoms: _239  and  _240
REMARK  101  A    between atoms: _240  and  _241
REMARK  102  A    between atoms: _241  and  _242
REMARK  103  A    between atoms: _251  and  _253
REMARK  104  A    between atoms: _253  and  _254
REMARK  105  A    between atoms: _253  and  _256
REMARK  106  A    between atoms: _256  and  _257
REMARK  107  A    between atoms: _263  and  _265
REMARK  108  A    between atoms: _265  and  _266
REMARK  109  A    between atoms: _265  and  _268
REMARK  110  A    between atoms: _268  and  _269
REMARK  111  A    between atoms: _272  and  _274
REMARK  112  A    between atoms: _274  and  _275
REMARK  113  A    between atoms: _274  and  _277
REMARK  114  A    between atoms: _277  and  _278
REMARK  115  A    between atoms: _278  and  _279
REMARK  116  A    between atoms: _279  and  _280
REMARK  117  A    between atoms: _289  and  _291
REMARK  118  A    between atoms: _291  and  _292
REMARK  119  A    between atoms: _291  and  _294
REMARK  120  A    between atoms: _294  and  _295
REMARK  121  A    between atoms: _300  and  _301
REMARK  122  A    between atoms: _303  and  _305
REMARK  123  A    between atoms: _305  and  _306
REMARK  124  A    between atoms: _308  and  _310
REMARK  125  A    between atoms: _310  and  _311
REMARK  126  A    between atoms: _310  and  _313
REMARK  127  A    between atoms: _313  and  _314
REMARK  128  A    between atoms: _319  and  _320
REMARK  129  A    between atoms: _322  and  _324
REMARK  130  A    between atoms: _324  and  _325
REMARK  131  A    between atoms: _328  and  _330
REMARK  132  A    between atoms: _330  and  _331
REMARK  133  A    between atoms: _330  and  _333
REMARK  134  A    between atoms: _333  and  _334
REMARK  135  A    between atoms: _337  and  _339
REMARK  136  A    between atoms: _339  and  _340
REMARK  137  A    between atoms: _339  and  _342
REMARK  138  A    between atoms: _342  and  _343
REMARK  139  A    between atoms: _346  and  _348
REMARK  140  A    between atoms: _348  and  _349
REMARK  141  A    between atoms: _352  and  _354
REMARK  142  A    between atoms: _354  and  _355
REMARK  143  A    between atoms: _354  and  _357
REMARK  144  A    between atoms: _357  and  _358
REMARK  145  A    between atoms: _361  and  _363
REMARK  146  A    between atoms: _363  and  _364
REMARK  147  A    between atoms: _363  and  _366
REMARK  148  A    between atoms: _366  and  _367
REMARK  149  A    between atoms: _372  and  _374
REMARK  150  A    between atoms: _374  and  _375
REMARK  151  A    between atoms: _374  and  _377
REMARK  152  A    between atoms: _377  and  _378
REMARK  153  A    between atoms: _384  and  _386
REMARK  154  A    between atoms: _386  and  _387
REMARK  155  A    between atoms: _390  and  _392
REMARK  156  A    between atoms: _392  and  _393
REMARK  157  A    between atoms: _392  and  _395
REMARK  158  A    between atoms: _395  and  _396
REMARK  159  A    between atoms: _399  and  _401
REMARK  160  A    between atoms: _401  and  _402
REMARK  161  A    between atoms: _404  and  _406
REMARK  162  A    between atoms: _406  and  _407
REMARK  163  A    between atoms: _406  and  _409
REMARK  164  A    between atoms: _409  and  _410
REMARK  165  A    between atoms: _415  and  _417
REMARK  166  A    between atoms: _417  and  _418
REMARK  167  A    between atoms: _417  and  _420
REMARK  168  A    between atoms: _420  and  _421
REMARK  169  A    between atoms: _431  and  _433
REMARK  170  A    between atoms: _433  and  _434
REMARK  171  A    between atoms: _436  and  _438
REMARK  172  A    between atoms: _438  and  _439
REMARK  173  A    between atoms: _438  and  _441
REMARK  174  A    between atoms: _443  and  _445
REMARK  175  A    between atoms: _445  and  _446
REMARK  176  A    between atoms: _448  and  _450
REMARK  177  A    between atoms: _450  and  _451
REMARK  178  A    between atoms: _454  and  _456
REMARK  179  A    between atoms: _456  and  _457
REMARK  180  A    between atoms: _456  and  _459
REMARK  181  A    between atoms: _459  and  _460
REMARK  182  A    between atoms: _466  and  _468
REMARK  183  A    between atoms: _468  and  _469
REMARK  184  A    between atoms: _471  and  _473
REMARK  185  A    between atoms: _473  and  _474
REMARK  186  A    between atoms: _476  and  _478
REMARK  187  A    between atoms: _478  and  _479
REMARK  188  A    between atoms: _482  and  _484
REMARK  189  A    between atoms: _484  and  _485
REMARK  190  A    between atoms: _484  and  _487
REMARK  191  A    between atoms: _487  and  _488
REMARK  192  A    between atoms: _488  and  _489
REMARK  193  A    between atoms: _489  and  _490
REMARK  194  A    between atoms: _490  and  _491
REMARK  195  A    between atoms: _495  and  _497
REMARK  196  A    between atoms: _497  and  _498
REMARK  197  A    between atoms: _497  and  _500
REMARK  198  A    between atoms: _500  and  _501
REMARK  199  A    between atoms: _506  and  _507
REMARK  200  A    between atoms: _509  and  _511
REMARK  201  A    between atoms: _511  and  _512
REMARK  202  A    between atoms: _511  and  _514
REMARK  203  A    between atoms: _514  and  _515
REMARK  204  A    between atoms: _521  and  _523
REMARK  205  A    between atoms: _523  and  _524
REMARK  206  A    between atoms: _523  and  _526
REMARK  207  A    between atoms: _526  and  _527
REMARK  208  A    between atoms: _530  and  _532
REMARK  209  A    between atoms: _532  and  _533
REMARK  210  A    between atoms: _532  and  _535
REMARK  211  A    between atoms: _535  and  _536
REMARK  212  A    between atoms: _542  and  _544
REMARK  213  A    between atoms: _544  and  _545
REMARK  214  A    between atoms: _547  and  _549
REMARK  215  A    between atoms: _549  and  _550
REMARK  216  A    between atoms: _549  and  _552
REMARK  217  A    between atoms: _552  and  _553
REMARK  218  A    between atoms: _556  and  _558
REMARK  219  A    between atoms: _558  and  _559
REMARK  220  A    between atoms: _558  and  _561
REMARK  221  A    between atoms: _561  and  _562
REMARK                            x       y       z     vdW  Elec       q    Type
REMARK                         _______ _______ _______ _____ _____    ______ ____
ROOT
ATOM      1  O   HOH     1      37.130  -3.048   1.829  0.00  0.00    +0.000 OA
ENDROOT
TORSDOF 0
REMARK  Name = ../refined-set-2016/4b1j/4b1j_pocket.pdb
REMARK  221 active torsions:
REMARK  status: ('A' for Active; 'I' for Inactive)
REMARK    1  A    between atoms: _1  and  _3
REMARK    2  A    between atoms: _3  and  _4
REMARK    3  A    between atoms: _3  and  _6
REMARK    4  A    between atoms: _6  and  _7
REMARK    5  A    between atoms: _7  and  _8
REMARK    6  A    between atoms: _11  and  _13
REMARK    7  A    between atoms: _13  and  _14
REMARK    8  A    between atoms: _16  and  _18
REMARK    9  A    between atoms: _18  and  _19
REMARK   10  A    between atoms: _18  and  _21
REMARK   11  A    between atoms: _21  and  _22
REMARK   12  A    between atoms: _25  and  _27
REMARK   13  A    between atoms: _27  and  _28
REMARK   14  A    between atoms: _27  and  _30
REMARK   15  A    between atoms: _30  and  _31
REMARK   16  A    between atoms: _34  and  _36
REMARK   17  A    between atoms: _36  and  _37
REMARK   18  A    between atoms: _36  and  _39
REMARK   19  A    between atoms: _39  and  _40
REMARK   20  A    between atoms: _40  and  _41
REMARK   21  A    between atoms: _44  and  _46
REMARK   22  A    between atoms: _46  and  _47
REMARK   23  A    between atoms: _46  and  _49
REMARK   24  A    between atoms: _49  and  _50
REMARK   25  A    between atoms: _50  and  _51
REMARK   26  A    between atoms: _54  and  _56
REMARK   27  A    between atoms: _56  and  _57
REMARK   28  A    between atoms: _56  and  _59
REMARK   29  A    between atoms: _59  and  _60
REMARK   30  A    between atoms: _65  and  _67
REMARK   31  A    between atoms: _67  and  _68
REMARK   32  A    between atoms: _67  and  _70
REMARK   33  A    between atoms: _73  and  _75
REMARK   34  A    between atoms: _75  and  _76
REMARK   35  A    between atoms: _75  and  _78
REMARK   36  A    between atoms: _78  and  _79
REMARK   37  A    between atoms: _82  and  _84
REMARK   38  A    between atoms: _84  and  _85
REMARK   39  A    between atoms: _84  and  _87
REMARK   40  A    between atoms: _87  and  _88
REMARK   41  A    between atoms: _94  and  _96
REMARK   42  A    between atoms: _96  and  _97
REMARK   43  A    between atoms: _100  and  _102
REMARK   44  A    between atoms: _102  and  _103
REMARK   45  A    between atoms: _102  and  _105
REMARK   46  A    between atoms: _105  and  _106
REMARK   47  A    between atoms: _111  and  _113
REMARK   48  A    between atoms: _113  and  _114
REMARK   49  A    between atoms: _113  and  _116
REMARK   50  A    between atoms: _116  and  _117
REMARK   51  A    between atoms: _117  and  _118
REMARK   52  A    between atoms: _118  and  _119
REMARK   53  A    between atoms: _128  and  _130
REMARK   54  A    between atoms: _130  and  _131
REMARK   55  A    between atoms: _130  and  _133
REMARK   56  A    between atoms: _133  and  _134
REMARK   57  A    between atoms: _140  and  _142
REMARK   58  A    between atoms: _142  and  _143
REMARK   59  A    between atoms: _142  and  _145
REMARK   60  A    between atoms: _148  and  _150
REMARK   61  A    between atoms: _150  and  _151
REMARK   62  A    between atoms: _153  and  _155
REMARK   63  A    between atoms: _155  and  _156
REMARK   64  A    between atoms: _158  and  _160
REMARK   65  A    between atoms: _160  and  _161
REMARK   66  A    between atoms: _163  and  _165
REMARK   67  A    between atoms: _165  and  _166
REMARK   68  A    between atoms: _165  and  _168
REMARK   69  A    between atoms: _171  and  _173
REMARK   70  A    between atoms: _173  and  _174
REMARK   71  A    between atoms: _176  and  _178
REMARK   72  A    between atoms: _178  and  _179
REMARK   73  A    between atoms: _178  and  _181
REMARK   74  A    between atoms: _181  and  _182
REMARK   75  A    between atoms: _185  and  _187
REMARK   76  A    between atoms: _187  and  _188
REMARK   77  A    between atoms: _187  and  _190
REMARK   78  A    between atoms: _193  and  _195
REMARK   79  A    between atoms: _195  and  _196
REMARK   80  A    between atoms: _195  and  _198
REMARK   81  A    between atoms: _198  and  _199
REMARK   82  A    between atoms: _199  and  _200
REMARK   83  A    between atoms: _205  and  _207
REMARK   84  A    between atoms: _207  and  _208
REMARK   85  A    between atoms: _207  and  _210
REMARK   86  A    between atoms: _210  and  _211
REMARK   87  A    between atoms: _211  and  _212
REMARK   88  A    between atoms: _215  and  _217
REMARK   89  A    between atoms: _217  and  _218
REMARK   90  A    between atoms: _217  and  _220
REMARK   91  A    between atoms: _220  and  _221
REMARK   92  A    between atoms: _221  and  _222
REMARK   93  A    between atoms: _225  and  _227
REMARK   94  A    between atoms: _227  and  _228
REMARK   95  A    between atoms: _227  and  _230
REMARK   96  A    between atoms: _230  and  _231
REMARK   97  A    between atoms: _234  and  _236
REMARK   98  A    between atoms: _236  and  _237
REMARK   99  A    between atoms: _236  and  _239
REMARK  100  A    between atoms: _239  and  _240
REMARK  101  A    between atoms: _240  and  _241
REMARK  102  A    between atoms: _241  and  _242
REMARK  103  A    between atoms: _251  and  _253
REMARK  104  A    between atoms: _253  and  _254
REMARK  105  A    between atoms: _253  and  _256
REMARK  106  A    between atoms: _256  and  _257
REMARK  107  A    between atoms: _263  and  _265
REMARK  108  A    between atoms: _265  and  _266
REMARK  109  A    between atoms: _265  and  _268
REMARK  110  A    between atoms: _268  and  _269
REMARK  111  A    between atoms: _272  and  _274
REMARK  112  A    between atoms: _274  and  _275
REMARK  113  A    between atoms: _274  and  _277
REMARK  114  A    between atoms: _277  and  _278
REMARK  115  A    between atoms: _278  and  _279
REMARK  116  A    between atoms: _279  and  _280
REMARK  117  A    between atoms: _289  and  _291
REMARK  118  A    between atoms: _291  and  _292
REMARK  119  A    between atoms: _291  and  _294
REMARK  120  A    between atoms: _294  and  _295
REMARK  121  A    between atoms: _300  and  _301
REMARK  122  A    between atoms: _303  and  _305
REMARK  123  A    between atoms: _305  and  _306
REMARK  124  A    between atoms: _308  and  _310
REMARK  125  A    between atoms: _310  and  _311
REMARK  126  A    between atoms: _310  and  _313
REMARK  127  A    between atoms: _313  and  _314
REMARK  128  A    between atoms: _319  and  _320
REMARK  129  A    between atoms: _322  and  _324
REMARK  130  A    between atoms: _324  and  _325
REMARK  131  A    between atoms: _328  and  _330
REMARK  132  A    between atoms: _330  and  _331
REMARK  133  A    between atoms: _330  and  _333
REMARK  134  A    between atoms: _333  and  _334
REMARK  135  A    between atoms: _337  and  _339
REMARK  136  A    between atoms: _339  and  _340
REMARK  137  A    between atoms: _339  and  _342
REMARK  138  A    between atoms: _342  and  _343
REMARK  139  A    between atoms: _346  and  _348
REMARK  140  A    between atoms: _348  and  _349
REMARK  141  A    between atoms: _352  and  _354
REMARK  142  A    between atoms: _354  and  _355
REMARK  143  A    between atoms: _354  and  _357
REMARK  144  A    between atoms: _357  and  _358
REMARK  145  A    between atoms: _361  and  _363
REMARK  146  A    between atoms: _363  and  _364
REMARK  147  A    between atoms: _363  and  _366
REMARK  148  A    between atoms: _366  and  _367
REMARK  149  A    between atoms: _372  and  _374
REMARK  150  A    between atoms: _374  and  _375
REMARK  151  A    between atoms: _374  and  _377
REMARK  152  A    between atoms: _377  and  _378
REMARK  153  A    between atoms: _384  and  _386
REMARK  154  A    between atoms: _386  and  _387
REMARK  155  A    between atoms: _390  and  _392
REMARK  156  A    between atoms: _392  and  _393
REMARK  157  A    between atoms: _392  and  _395
REMARK  158  A    between atoms: _395  and  _396
REMARK  159  A    between atoms: _399  and  _401
REMARK  160  A    between atoms: _401  and  _402
REMARK  161  A    between atoms: _404  and  _406
REMARK  162  A    between atoms: _406  and  _407
REMARK  163  A    between atoms: _406  and  _409
REMARK  164  A    between atoms: _409  and  _410
REMARK  165  A    between atoms: _415  and  _417
REMARK  166  A    between atoms: _417  and  _418
REMARK  167  A    between atoms: _417  and  _420
REMARK  168  A    between atoms: _420  and  _421
REMARK  169  A    between atoms: _431  and  _433
REMARK  170  A    between atoms: _433  and  _434
REMARK  171  A    between atoms: _436  and  _438
REMARK  172  A    between atoms: _438  and  _439
REMARK  173  A    between atoms: _438  and  _441
REMARK  174  A    between atoms: _443  and  _445
REMARK  175  A    between atoms: _445  and  _446
REMARK  176  A    between atoms: _448  and  _450
REMARK  177  A    between atoms: _450  and  _451
REMARK  178  A    between atoms: _454  and  _456
REMARK  179  A    between atoms: _456  and  _457
REMARK  180  A    between atoms: _456  and  _459
REMARK  181  A    between atoms: _459  and  _460
REMARK  182  A    between atoms: _466  and  _468
REMARK  183  A    between atoms: _468  and  _469
REMARK  184  A    between atoms: _471  and  _473
REMARK  185  A    between atoms: _473  and  _474
REMARK  186  A    between atoms: _476  and  _478
REMARK  187  A    between atoms: _478  and  _479
REMARK  188  A    between atoms: _482  and  _484
REMARK  189  A    between atoms: _484  and  _485
REMARK  190  A    between atoms: _484  and  _487
REMARK  191  A    between atoms: _487  and  _488
REMARK  192  A    between atoms: _488  and  _489
REMARK  193  A    between atoms: _489  and  _490
REMARK  194  A    between atoms: _490  and  _491
REMARK  195  A    between atoms: _495  and  _497
REMARK  196  A    between atoms: _497  and  _498
REMARK  197  A    between atoms: _497  and  _500
REMARK  198  A    between atoms: _500  and  _501
REMARK  199  A    between atoms: _506  and  _507
REMARK  200  A    between atoms: _509  and  _511
REMARK  201  A    between atoms: _511  and  _512
REMARK  202  A    between atoms: _511  and  _514
REMARK  203  A    between atoms: _514  and  _515
REMARK  204  A    between atoms: _521  and  _523
REMARK  205  A    between atoms: _523  and  _524
REMARK  206  A    between atoms: _523  and  _526
REMARK  207  A    between atoms: _526  and  _527
REMARK  208  A    between atoms: _530  and  _532
REMARK  209  A    between atoms: _532  and  _533
REMARK  210  A    between atoms: _532  and  _535
REMARK  211  A    between atoms: _535  and  _536
REMARK  212  A    between atoms: _542  and  _544
REMARK  213  A    between atoms: _544  and  _545
REMARK  214  A    between atoms: _547  and  _549
REMARK  215  A    between atoms: _549  and  _550
REMARK  216  A    between atoms: _549  and  _552
REMARK  217  A    between atoms: _552  and  _553
REMARK  218  A    between atoms: _556  and  _558
REMARK  219  A    between atoms: _558  and  _559
REMARK  220  A    between atoms: _558  and  _561
REMARK  221  A    between atoms: _561  and  _562
REMARK                            x       y       z     vdW  Elec       q    Type
REMARK                         _______ _______ _______ _____ _____    ______ ____
ROOT
ATOM      1  O   HOH     1      21.968   1.013   0.332  0.00  0.00    +0.000 OA
ENDROOT
TORSDOF 0
REMARK  Name = ../refined-set-2016/4b1j/4b1j_pocket.pdb
REMARK  221 active torsions:
REMARK  status: ('A' for Active; 'I' for Inactive)
REMARK    1  A    between atoms: _1  and  _3
REMARK    2  A    between atoms: _3  and  _4
REMARK    3  A    between atoms: _3  and  _6
REMARK    4  A    between atoms: _6  and  _7
REMARK    5  A    between atoms: _7  and  _8
REMARK    6  A    between atoms: _11  and  _13
REMARK    7  A    between atoms: _13  and  _14
REMARK    8  A    between atoms: _16  and  _18
REMARK    9  A    between atoms: _18  and  _19
REMARK   10  A    between atoms: _18  and  _21
REMARK   11  A    between atoms: _21  and  _22
REMARK   12  A    between atoms: _25  and  _27
REMARK   13  A    between atoms: _27  and  _28
REMARK   14  A    between atoms: _27  and  _30
REMARK   15  A    between atoms: _30  and  _31
REMARK   16  A    between atoms: _34  and  _36
REMARK   17  A    between atoms: _36  and  _37
REMARK   18  A    between atoms: _36  and  _39
REMARK   19  A    between atoms: _39  and  _40
REMARK   20  A    between atoms: _40  and  _41
REMARK   21  A    between atoms: _44  and  _46
REMARK   22  A    between atoms: _46  and  _47
REMARK   23  A    between atoms: _46  and  _49
REMARK   24  A    between atoms: _49  and  _50
REMARK   25  A    between atoms: _50  and  _51
REMARK   26  A    between atoms: _54  and  _56
REMARK   27  A    between atoms: _56  and  _57
REMARK   28  A    between atoms: _56  and  _59
REMARK   29  A    between atoms: _59  and  _60
REMARK   30  A    between atoms: _65  and  _67
REMARK   31  A    between atoms: _67  and  _68
REMARK   32  A    between atoms: _67  and  _70
REMARK   33  A    between atoms: _73  and  _75
REMARK   34  A    between atoms: _75  and  _76
REMARK   35  A    between atoms: _75  and  _78
REMARK   36  A    between atoms: _78  and  _79
REMARK   37  A    between atoms: _82  and  _84
REMARK   38  A    between atoms: _84  and  _85
REMARK   39  A    between atoms: _84  and  _87
REMARK   40  A    between atoms: _87  and  _88
REMARK   41  A    between atoms: _94  and  _96
REMARK   42  A    between atoms: _96  and  _97
REMARK   43  A    between atoms: _100  and  _102
REMARK   44  A    between atoms: _102  and  _103
REMARK   45  A    between atoms: _102  and  _105
REMARK   46  A    between atoms: _105  and  _106
REMARK   47  A    between atoms: _111  and  _113
REMARK   48  A    between atoms: _113  and  _114
REMARK   49  A    between atoms: _113  and  _116
REMARK   50  A    between atoms: _116  and  _117
REMARK   51  A    between atoms: _117  and  _118
REMARK   52  A    between atoms: _118  and  _119
REMARK   53  A    between atoms: _128  and  _130
REMARK   54  A    between atoms: _130  and  _131
REMARK   55  A    between atoms: _130  and  _133
REMARK   56  A    between atoms: _133  and  _134
REMARK   57  A    between atoms: _140  and  _142
REMARK   58  A    between atoms: _142  and  _143
REMARK   59  A    between atoms: _142  and  _145
REMARK   60  A    between atoms: _148  and  _150
REMARK   61  A    between atoms: _150  and  _151
REMARK   62  A    between atoms: _153  and  _155
REMARK   63  A    between atoms: _155  and  _156
REMARK   64  A    between atoms: _158  and  _160
REMARK   65  A    between atoms: _160  and  _161
REMARK   66  A    between atoms: _163  and  _165
REMARK   67  A    between atoms: _165  and  _166
REMARK   68  A    between atoms: _165  and  _168
REMARK   69  A    between atoms: _171  and  _173
REMARK   70  A    between atoms: _173  and  _174
REMARK   71  A    between atoms: _176  and  _178
REMARK   72  A    between atoms: _178  and  _179
REMARK   73  A    between atoms: _178  and  _181
REMARK   74  A    between atoms: _181  and  _182
REMARK   75  A    between atoms: _185  and  _187
REMARK   76  A    between atoms: _187  and  _188
REMARK   77  A    between atoms: _187  and  _190
REMARK   78  A    between atoms: _193  and  _195
REMARK   79  A    between atoms: _195  and  _196
REMARK   80  A    between atoms: _195  and  _198
REMARK   81  A    between atoms: _198  and  _199
REMARK   82  A    between atoms: _199  and  _200
REMARK   83  A    between atoms: _205  and  _207
REMARK   84  A    between atoms: _207  and  _208
REMARK   85  A    between atoms: _207  and  _210
REMARK   86  A    between atoms: _210  and  _211
REMARK   87  A    between atoms: _211  and  _212
REMARK   88  A    between atoms: _215  and  _217
REMARK   89  A    between atoms: _217  and  _218
REMARK   90  A    between atoms: _217  and  _220
REMARK   91  A    between atoms: _220  and  _221
REMARK   92  A    between atoms: _221  and  _222
REMARK   93  A    between atoms: _225  and  _227
REMARK   94  A    between atoms: _227  and  _228
REMARK   95  A    between atoms: _227  and  _230
REMARK   96  A    between atoms: _230  and  _231
REMARK   97  A    between atoms: _234  and  _236
REMARK   98  A    between atoms: _236  and  _237
REMARK   99  A    between atoms: _236  and  _239
REMARK  100  A    between atoms: _239  and  _240
REMARK  101  A    between atoms: _240  and  _241
REMARK  102  A    between atoms: _241  and  _242
REMARK  103  A    between atoms: _251  and  _253
REMARK  104  A    between atoms: _253  and  _254
REMARK  105  A    between atoms: _253  and  _256
REMARK  106  A    between atoms: _256  and  _257
REMARK  107  A    between atoms: _263  and  _265
REMARK  108  A    between atoms: _265  and  _266
REMARK  109  A    between atoms: _265  and  _268
REMARK  110  A    between atoms: _268  and  _269
REMARK  111  A    between atoms: _272  and  _274
REMARK  112  A    between atoms: _274  and  _275
REMARK  113  A    between atoms: _274  and  _277
REMARK  114  A    between atoms: _277  and  _278
REMARK  115  A    between atoms: _278  and  _279
REMARK  116  A    between atoms: _279  and  _280
REMARK  117  A    between atoms: _289  and  _291
REMARK  118  A    between atoms: _291  and  _292
REMARK  119  A    between atoms: _291  and  _294
REMARK  120  A    between atoms: _294  and  _295
REMARK  121  A    between atoms: _300  and  _301
REMARK  122  A    between atoms: _303  and  _305
REMARK  123  A    between atoms: _305  and  _306
REMARK  124  A    between atoms: _308  and  _310
REMARK  125  A    between atoms: _310  and  _311
REMARK  126  A    between atoms: _310  and  _313
REMARK  127  A    between atoms: _313  and  _314
REMARK  128  A    between atoms: _319  and  _320
REMARK  129  A    between atoms: _322  and  _324
REMARK  130  A    between atoms: _324  and  _325
REMARK  131  A    between atoms: _328  and  _330
REMARK  132  A    between atoms: _330  and  _331
REMARK  133  A    between atoms: _330  and  _333
REMARK  134  A    between atoms: _333  and  _334
REMARK  135  A    between atoms: _337  and  _339
REMARK  136  A    between atoms: _339  and  _340
REMARK  137  A    between atoms: _339  and  _342
REMARK  138  A    between atoms: _342  and  _343
REMARK  139  A    between atoms: _346  and  _348
REMARK  140  A    between atoms: _348  and  _349
REMARK  141  A    between atoms: _352  and  _354
REMARK  142  A    between atoms: _354  and  _355
REMARK  143  A    between atoms: _354  and  _357
REMARK  144  A    between atoms: _357  and  _358
REMARK  145  A    between atoms: _361  and  _363
REMARK  146  A    between atoms: _363  and  _364
REMARK  147  A    between atoms: _363  and  _366
REMARK  148  A    between atoms: _366  and  _367
REMARK  149  A    between atoms: _372  and  _374
REMARK  150  A    between atoms: _374  and  _375
REMARK  151  A    between atoms: _374  and  _377
REMARK  152  A    between atoms: _377  and  _378
REMARK  153  A    between atoms: _384  and  _386
REMARK  154  A    between atoms: _386  and  _387
REMARK  155  A    between atoms: _390  and  _392
REMARK  156  A    between atoms: _392  and  _393
REMARK  157  A    between atoms: _392  and  _395
REMARK  158  A    between atoms: _395  and  _396
REMARK  159  A    between atoms: _399  and  _401
REMARK  160  A    between atoms: _401  and  _402
REMARK  161  A    between atoms: _404  and  _406
REMARK  162  A    between atoms: _406  and  _407
REMARK  163  A    between atoms: _406  and  _409
REMARK  164  A    between atoms: _409  and  _410
REMARK  165  A    between atoms: _415  and  _417
REMARK  166  A    between atoms: _417  and  _418
REMARK  167  A    between atoms: _417  and  _420
REMARK  168  A    between atoms: _420  and  _421
REMARK  169  A    between atoms: _431  and  _433
REMARK  170  A    between atoms: _433  and  _434
REMARK  171  A    between atoms: _436  and  _438
REMARK  172  A    between atoms: _438  and  _439
REMARK  173  A    between atoms: _438  and  _441
REMARK  174  A    between atoms: _443  and  _445
REMARK  175  A    between atoms: _445  and  _446
REMARK  176  A    between atoms: _448  and  _450
REMARK  177  A    between atoms: _450  and  _451
REMARK  178  A    between atoms: _454  and  _456
REMARK  179  A    between atoms: _456  and  _457
REMARK  180  A    between atoms: _456  and  _459
REMARK  181  A    between atoms: _459  and  _460
REMARK  182  A    between atoms: _466  and  _468
REMARK  183  A    between atoms: _468  and  _469
REMARK  184  A    between atoms: _471  and  _473
REMARK  185  A    between atoms: _473  and  _474
REMARK  186  A    between atoms: _476  and  _478
REMARK  187  A    between atoms: _478  and  _479
REMARK  188  A    between atoms: _482  and  _484
REMARK  189  A    between atoms: _484  and  _485
REMARK  190  A    between atoms: _484  and  _487
REMARK  191  A    between atoms: _487  and  _488
REMARK  192  A    between atoms: _488  and  _489
REMARK  193  A    between atoms: _489  and  _490
REMARK  194  A    between atoms: _490  and  _491
REMARK  195  A    between atoms: _495  and  _497
REMARK  196  A    between atoms: _497  and  _498
REMARK  197  A    between atoms: _497  and  _500
REMARK  198  A    between atoms: _500  and  _501
REMARK  199  A    between atoms: _506  and  _507
REMARK  200  A    between atoms: _509  and  _511
REMARK  201  A    between atoms: _511  and  _512
REMARK  202  A    between atoms: _511  and  _514
REMARK  203  A    between atoms: _514  and  _515
REMARK  204  A    between atoms: _521  and  _523
REMARK  205  A    between atoms: _523  and  _524
REMARK  206  A    between atoms: _523  and  _526
REMARK  207  A    between atoms: _526  and  _527
REMARK  208  A    between atoms: _530  and  _532
REMARK  209  A    between atoms: _532  and  _533
REMARK  210  A    between atoms: _532  and  _535
REMARK  211  A    between atoms: _535  and  _536
REMARK  212  A    between atoms: _542  and  _544
REMARK  213  A    between atoms: _544  and  _545
REMARK  214  A    between atoms: _547  and  _549
REMARK  215  A    between atoms: _549  and  _550
REMARK  216  A    between atoms: _549  and  _552
REMARK  217  A    between atoms: _552  and  _553
REMARK  218  A    between atoms: _556  and  _558
REMARK  219  A    between atoms: _558  and  _559
REMARK  220  A    between atoms: _558  and  _561
REMARK  221  A    between atoms: _561  and  _562
REMARK                            x       y       z     vdW  Elec       q    Type
REMARK                         _______ _______ _______ _____ _____    ______ ____
ROOT
ATOM      1  O   HOH     1      29.347   6.930   6.758  0.00  0.00    +0.000 OA
ENDROOT
TORSDOF 0
REMARK  Name = ../refined-set-2016/4b1j/4b1j_pocket.pdb
REMARK  221 active torsions:
REMARK  status: ('A' for Active; 'I' for Inactive)
REMARK    1  A    between atoms: _1  and  _3
REMARK    2  A    between atoms: _3  and  _4
REMARK    3  A    between atoms: _3  and  _6
REMARK    4  A    between atoms: _6  and  _7
REMARK    5  A    between atoms: _7  and  _8
REMARK    6  A    between atoms: _11  and  _13
REMARK    7  A    between atoms: _13  and  _14
REMARK    8  A    between atoms: _16  and  _18
REMARK    9  A    between atoms: _18  and  _19
REMARK   10  A    between atoms: _18  and  _21
REMARK   11  A    between atoms: _21  and  _22
REMARK   12  A    between atoms: _25  and  _27
REMARK   13  A    between atoms: _27  and  _28
REMARK   14  A    between atoms: _27  and  _30
REMARK   15  A    between atoms: _30  and  _31
REMARK   16  A    between atoms: _34  and  _36
REMARK   17  A    between atoms: _36  and  _37
REMARK   18  A    between atoms: _36  and  _39
REMARK   19  A    between atoms: _39  and  _40
REMARK   20  A    between atoms: _40  and  _41
REMARK   21  A    between atoms: _44  and  _46
REMARK   22  A    between atoms: _46  and  _47
REMARK   23  A    between atoms: _46  and  _49
REMARK   24  A    between atoms: _49  and  _50
REMARK   25  A    between atoms: _50  and  _51
REMARK   26  A    between atoms: _54  and  _56
REMARK   27  A    between atoms: _56  and  _57
REMARK   28  A    between atoms: _56  and  _59
REMARK   29  A    between atoms: _59  and  _60
REMARK   30  A    between atoms: _65  and  _67
REMARK   31  A    between atoms: _67  and  _68
REMARK   32  A    between atoms: _67  and  _70
REMARK   33  A    between atoms: _73  and  _75
REMARK   34  A    between atoms: _75  and  _76
REMARK   35  A    between atoms: _75  and  _78
REMARK   36  A    between atoms: _78  and  _79
REMARK   37  A    between atoms: _82  and  _84
REMARK   38  A    between atoms: _84  and  _85
REMARK   39  A    between atoms: _84  and  _87
REMARK   40  A    between atoms: _87  and  _88
REMARK   41  A    between atoms: _94  and  _96
REMARK   42  A    between atoms: _96  and  _97
REMARK   43  A    between atoms: _100  and  _102
REMARK   44  A    between atoms: _102  and  _103
REMARK   45  A    between atoms: _102  and  _105
REMARK   46  A    between atoms: _105  and  _106
REMARK   47  A    between atoms: _111  and  _113
REMARK   48  A    between atoms: _113  and  _114
REMARK   49  A    between atoms: _113  and  _116
REMARK   50  A    between atoms: _116  and  _117
REMARK   51  A    between atoms: _117  and  _118
REMARK   52  A    between atoms: _118  and  _119
REMARK   53  A    between atoms: _128  and  _130
REMARK   54  A    between atoms: _130  and  _131
REMARK   55  A    between atoms: _130  and  _133
REMARK   56  A    between atoms: _133  and  _134
REMARK   57  A    between atoms: _140  and  _142
REMARK   58  A    between atoms: _142  and  _143
REMARK   59  A    between atoms: _142  and  _145
REMARK   60  A    between atoms: _148  and  _150
REMARK   61  A    between atoms: _150  and  _151
REMARK   62  A    between atoms: _153  and  _155
REMARK   63  A    between atoms: _155  and  _156
REMARK   64  A    between atoms: _158  and  _160
REMARK   65  A    between atoms: _160  and  _161
REMARK   66  A    between atoms: _163  and  _165
REMARK   67  A    between atoms: _165  and  _166
REMARK   68  A    between atoms: _165  and  _168
REMARK   69  A    between atoms: _171  and  _173
REMARK   70  A    between atoms: _173  and  _174
REMARK   71  A    between atoms: _176  and  _178
REMARK   72  A    between atoms: _178  and  _179
REMARK   73  A    between atoms: _178  and  _181
REMARK   74  A    between atoms: _181  and  _182
REMARK   75  A    between atoms: _185  and  _187
REMARK   76  A    between atoms: _187  and  _188
REMARK   77  A    between atoms: _187  and  _190
REMARK   78  A    between atoms: _193  and  _195
REMARK   79  A    between atoms: _195  and  _196
REMARK   80  A    between atoms: _195  and  _198
REMARK   81  A    between atoms: _198  and  _199
REMARK   82  A    between atoms: _199  and  _200
REMARK   83  A    between atoms: _205  and  _207
REMARK   84  A    between atoms: _207  and  _208
REMARK   85  A    between atoms: _207  and  _210
REMARK   86  A    between atoms: _210  and  _211
REMARK   87  A    between atoms: _211  and  _212
REMARK   88  A    between atoms: _215  and  _217
REMARK   89  A    between atoms: _217  and  _218
REMARK   90  A    between atoms: _217  and  _220
REMARK   91  A    between atoms: _220  and  _221
REMARK   92  A    between atoms: _221  and  _222
REMARK   93  A    between atoms: _225  and  _227
REMARK   94  A    between atoms: _227  and  _228
REMARK   95  A    between atoms: _227  and  _230
REMARK   96  A    between atoms: _230  and  _231
REMARK   97  A    between atoms: _234  and  _236
REMARK   98  A    between atoms: _236  and  _237
REMARK   99  A    between atoms: _236  and  _239
REMARK  100  A    between atoms: _239  and  _240
REMARK  101  A    between atoms: _240  and  _241
REMARK  102  A    between atoms: _241  and  _242
REMARK  103  A    between atoms: _251  and  _253
REMARK  104  A    between atoms: _253  and  _254
REMARK  105  A    between atoms: _253  and  _256
REMARK  106  A    between atoms: _256  and  _257
REMARK  107  A    between atoms: _263  and  _265
REMARK  108  A    between atoms: _265  and  _266
REMARK  109  A    between atoms: _265  and  _268
REMARK  110  A    between atoms: _268  and  _269
REMARK  111  A    between atoms: _272  and  _274
REMARK  112  A    between atoms: _274  and  _275
REMARK  113  A    between atoms: _274  and  _277
REMARK  114  A    between atoms: _277  and  _278
REMARK  115  A    between atoms: _278  and  _279
REMARK  116  A    between atoms: _279  and  _280
REMARK  117  A    between atoms: _289  and  _291
REMARK  118  A    between atoms: _291  and  _292
REMARK  119  A    between atoms: _291  and  _294
REMARK  120  A    between atoms: _294  and  _295
REMARK  121  A    between atoms: _300  and  _301
REMARK  122  A    between atoms: _303  and  _305
REMARK  123  A    between atoms: _305  and  _306
REMARK  124  A    between atoms: _308  and  _310
REMARK  125  A    between atoms: _310  and  _311
REMARK  126  A    between atoms: _310  and  _313
REMARK  127  A    between atoms: _313  and  _314
REMARK  128  A    between atoms: _319  and  _320
REMARK  129  A    between atoms: _322  and  _324
REMARK  130  A    between atoms: _324  and  _325
REMARK  131  A    between atoms: _328  and  _330
REMARK  132  A    between atoms: _330  and  _331
REMARK  133  A    between atoms: _330  and  _333
REMARK  134  A    between atoms: _333  and  _334
REMARK  135  A    between atoms: _337  and  _339
REMARK  136  A    between atoms: _339  and  _340
REMARK  137  A    between atoms: _339  and  _342
REMARK  138  A    between atoms: _342  and  _343
REMARK  139  A    between atoms: _346  and  _348
REMARK  140  A    between atoms: _348  and  _349
REMARK  141  A    between atoms: _352  and  _354
REMARK  142  A    between atoms: _354  and  _355
REMARK  143  A    between atoms: _354  and  _357
REMARK  144  A    between atoms: _357  and  _358
REMARK  145  A    between atoms: _361  and  _363
REMARK  146  A    between atoms: _363  and  _364
REMARK  147  A    between atoms: _363  and  _366
REMARK  148  A    between atoms: _366  and  _367
REMARK  149  A    between atoms: _372  and  _374
REMARK  150  A    between atoms: _374  and  _375
REMARK  151  A    between atoms: _374  and  _377
REMARK  152  A    between atoms: _377  and  _378
REMARK  153  A    between atoms: _384  and  _386
REMARK  154  A    between atoms: _386  and  _387
REMARK  155  A    between atoms: _390  and  _392
REMARK  156  A    between atoms: _392  and  _393
REMARK  157  A    between atoms: _392  and  _395
REMARK  158  A    between atoms: _395  and  _396
REMARK  159  A    between atoms: _399  and  _401
REMARK  160  A    between atoms: _401  and  _402
REMARK  161  A    between atoms: _404  and  _406
REMARK  162  A    between atoms: _406  and  _407
REMARK  163  A    between atoms: _406  and  _409
REMARK  164  A    between atoms: _409  and  _410
REMARK  165  A    between atoms: _415  and  _417
REMARK  166  A    between atoms: _417  and  _418
REMARK  167  A    between atoms: _417  and  _420
REMARK  168  A    between atoms: _420  and  _421
REMARK  169  A    between atoms: _431  and  _433
REMARK  170  A    between atoms: _433  and  _434
REMARK  171  A    between atoms: _436  and  _438
REMARK  172  A    between atoms: _438  and  _439
REMARK  173  A    between atoms: _438  and  _441
REMARK  174  A    between atoms: _443  and  _445
REMARK  175  A    between atoms: _445  and  _446
REMARK  176  A    between atoms: _448  and  _450
REMARK  177  A    between atoms: _450  and  _451
REMARK  178  A    between atoms: _454  and  _456
REMARK  179  A    between atoms: _456  and  _457
REMARK  180  A    between atoms: _456  and  _459
REMARK  181  A    between atoms: _459  and  _460
REMARK  182  A    between atoms: _466  and  _468
REMARK  183  A    between atoms: _468  and  _469
REMARK  184  A    between atoms: _471  and  _473
REMARK  185  A    between atoms: _473  and  _474
REMARK  186  A    between atoms: _476  and  _478
REMARK  187  A    between atoms: _478  and  _479
REMARK  188  A    between atoms: _482  and  _484
REMARK  189  A    between atoms: _484  and  _485
REMARK  190  A    between atoms: _484  and  _487
REMARK  191  A    between atoms: _487  and  _488
REMARK  192  A    between atoms: _488  and  _489
REMARK  193  A    between atoms: _489  and  _490
REMARK  194  A    between atoms: _490  and  _491
REMARK  195  A    between atoms: _495  and  _497
REMARK  196  A    between atoms: _497  and  _498
REMARK  197  A    between atoms: _497  and  _500
REMARK  198  A    between atoms: _500  and  _501
REMARK  199  A    between atoms: _506  and  _507
REMARK  200  A    between atoms: _509  and  _511
REMARK  201  A    between atoms: _511  and  _512
REMARK  202  A    between atoms: _511  and  _514
REMARK  203  A    between atoms: _514  and  _515
REMARK  204  A    between atoms: _521  and  _523
REMARK  205  A    between atoms: _523  and  _524
REMARK  206  A    between atoms: _523  and  _526
REMARK  207  A    between atoms: _526  and  _527
REMARK  208  A    between atoms: _530  and  _532
REMARK  209  A    between atoms: _532  and  _533
REMARK  210  A    between atoms: _532  and  _535
REMARK  211  A    between atoms: _535  and  _536
REMARK  212  A    between atoms: _542  and  _544
REMARK  213  A    between atoms: _544  and  _545
REMARK  214  A    between atoms: _547  and  _549
REMARK  215  A    between atoms: _549  and  _550
REMARK  216  A    between atoms: _549  and  _552
REMARK  217  A    between atoms: _552  and  _553
REMARK  218  A    between atoms: _556  and  _558
REMARK  219  A    between atoms: _558  and  _559
REMARK  220  A    between atoms: _558  and  _561
REMARK  221  A    between atoms: _561  and  _562
REMARK                            x       y       z     vdW  Elec       q    Type
REMARK                         _______ _______ _______ _____ _____    ______ ____
ROOT
ATOM      1  O   HOH     1      36.353  -7.128  -1.135  0.00  0.00    +0.000 OA
ENDROOT
TORSDOF 0
REMARK  Name = ../refined-set-2016/4b1j/4b1j_pocket.pdb
REMARK  221 active torsions:
REMARK  status: ('A' for Active; 'I' for Inactive)
REMARK    1  A    between atoms: _1  and  _3
REMARK    2  A    between atoms: _3  and  _4
REMARK    3  A    between atoms: _3  and  _6
REMARK    4  A    between atoms: _6  and  _7
REMARK    5  A    between atoms: _7  and  _8
REMARK    6  A    between atoms: _11  and  _13
REMARK    7  A    between atoms: _13  and  _14
REMARK    8  A    between atoms: _16  and  _18
REMARK    9  A    between atoms: _18  and  _19
REMARK   10  A    between atoms: _18  and  _21
REMARK   11  A    between atoms: _21  and  _22
REMARK   12  A    between atoms: _25  and  _27
REMARK   13  A    between atoms: _27  and  _28
REMARK   14  A    between atoms: _27  and  _30
REMARK   15  A    between atoms: _30  and  _31
REMARK   16  A    between atoms: _34  and  _36
REMARK   17  A    between atoms: _36  and  _37
REMARK   18  A    between atoms: _36  and  _39
REMARK   19  A    between atoms: _39  and  _40
REMARK   20  A    between atoms: _40  and  _41
REMARK   21  A    between atoms: _44  and  _46
REMARK   22  A    between atoms: _46  and  _47
REMARK   23  A    between atoms: _46  and  _49
REMARK   24  A    between atoms: _49  and  _50
REMARK   25  A    between atoms: _50  and  _51
REMARK   26  A    between atoms: _54  and  _56
REMARK   27  A    between atoms: _56  and  _57
REMARK   28  A    between atoms: _56  and  _59
REMARK   29  A    between atoms: _59  and  _60
REMARK   30  A    between atoms: _65  and  _67
REMARK   31  A    between atoms: _67  and  _68
REMARK   32  A    between atoms: _67  and  _70
REMARK   33  A    between atoms: _73  and  _75
REMARK   34  A    between atoms: _75  and  _76
REMARK   35  A    between atoms: _75  and  _78
REMARK   36  A    between atoms: _78  and  _79
REMARK   37  A    between atoms: _82  and  _84
REMARK   38  A    between atoms: _84  and  _85
REMARK   39  A    between atoms: _84  and  _87
REMARK   40  A    between atoms: _87  and  _88
REMARK   41  A    between atoms: _94  and  _96
REMARK   42  A    between atoms: _96  and  _97
REMARK   43  A    between atoms: _100  and  _102
REMARK   44  A    between atoms: _102  and  _103
REMARK   45  A    between atoms: _102  and  _105
REMARK   46  A    between atoms: _105  and  _106
REMARK   47  A    between atoms: _111  and  _113
REMARK   48  A    between atoms: _113  and  _114
REMARK   49  A    between atoms: _113  and  _116
REMARK   50  A    between atoms: _116  and  _117
REMARK   51  A    between atoms: _117  and  _118
REMARK   52  A    between atoms: _118  and  _119
REMARK   53  A    between atoms: _128  and  _130
REMARK   54  A    between atoms: _130  and  _131
REMARK   55  A    between atoms: _130  and  _133
REMARK   56  A    between atoms: _133  and  _134
REMARK   57  A    between atoms: _140  and  _142
REMARK   58  A    between atoms: _142  and  _143
REMARK   59  A    between atoms: _142  and  _145
REMARK   60  A    between atoms: _148  and  _150
REMARK   61  A    between atoms: _150  and  _151
REMARK   62  A    between atoms: _153  and  _155
REMARK   63  A    between atoms: _155  and  _156
REMARK   64  A    between atoms: _158  and  _160
REMARK   65  A    between atoms: _160  and  _161
REMARK   66  A    between atoms: _163  and  _165
REMARK   67  A    between atoms: _165  and  _166
REMARK   68  A    between atoms: _165  and  _168
REMARK   69  A    between atoms: _171  and  _173
REMARK   70  A    between atoms: _173  and  _174
REMARK   71  A    between atoms: _176  and  _178
REMARK   72  A    between atoms: _178  and  _179
REMARK   73  A    between atoms: _178  and  _181
REMARK   74  A    between atoms: _181  and  _182
REMARK   75  A    between atoms: _185  and  _187
REMARK   76  A    between atoms: _187  and  _188
REMARK   77  A    between atoms: _187  and  _190
REMARK   78  A    between atoms: _193  and  _195
REMARK   79  A    between atoms: _195  and  _196
REMARK   80  A    between atoms: _195  and  _198
REMARK   81  A    between atoms: _198  and  _199
REMARK   82  A    between atoms: _199  and  _200
REMARK   83  A    between atoms: _205  and  _207
REMARK   84  A    between atoms: _207  and  _208
REMARK   85  A    between atoms: _207  and  _210
REMARK   86  A    between atoms: _210  and  _211
REMARK   87  A    between atoms: _211  and  _212
REMARK   88  A    between atoms: _215  and  _217
REMARK   89  A    between atoms: _217  and  _218
REMARK   90  A    between atoms: _217  and  _220
REMARK   91  A    between atoms: _220  and  _221
REMARK   92  A    between atoms: _221  and  _222
REMARK   93  A    between atoms: _225  and  _227
REMARK   94  A    between atoms: _227  and  _228
REMARK   95  A    between atoms: _227  and  _230
REMARK   96  A    between atoms: _230  and  _231
REMARK   97  A    between atoms: _234  and  _236
REMARK   98  A    between atoms: _236  and  _237
REMARK   99  A    between atoms: _236  and  _239
REMARK  100  A    between atoms: _239  and  _240
REMARK  101  A    between atoms: _240  and  _241
REMARK  102  A    between atoms: _241  and  _242
REMARK  103  A    between atoms: _251  and  _253
REMARK  104  A    between atoms: _253  and  _254
REMARK  105  A    between atoms: _253  and  _256
REMARK  106  A    between atoms: _256  and  _257
REMARK  107  A    between atoms: _263  and  _265
REMARK  108  A    between atoms: _265  and  _266
REMARK  109  A    between atoms: _265  and  _268
REMARK  110  A    between atoms: _268  and  _269
REMARK  111  A    between atoms: _272  and  _274
REMARK  112  A    between atoms: _274  and  _275
REMARK  113  A    between atoms: _274  and  _277
REMARK  114  A    between atoms: _277  and  _278
REMARK  115  A    between atoms: _278  and  _279
REMARK  116  A    between atoms: _279  and  _280
REMARK  117  A    between atoms: _289  and  _291
REMARK  118  A    between atoms: _291  and  _292
REMARK  119  A    between atoms: _291  and  _294
REMARK  120  A    between atoms: _294  and  _295
REMARK  121  A    between atoms: _300  and  _301
REMARK  122  A    between atoms: _303  and  _305
REMARK  123  A    between atoms: _305  and  _306
REMARK  124  A    between atoms: _308  and  _310
REMARK  125  A    between atoms: _310  and  _311
REMARK  126  A    between atoms: _310  and  _313
REMARK  127  A    between atoms: _313  and  _314
REMARK  128  A    between atoms: _319  and  _320
REMARK  129  A    between atoms: _322  and  _324
REMARK  130  A    between atoms: _324  and  _325
REMARK  131  A    between atoms: _328  and  _330
REMARK  132  A    between atoms: _330  and  _331
REMARK  133  A    between atoms: _330  and  _333
REMARK  134  A    between atoms: _333  and  _334
REMARK  135  A    between atoms: _337  and  _339
REMARK  136  A    between atoms: _339  and  _340
REMARK  137  A    between atoms: _339  and  _342
REMARK  138  A    between atoms: _342  and  _343
REMARK  139  A    between atoms: _346  and  _348
REMARK  140  A    between atoms: _348  and  _349
REMARK  141  A    between atoms: _352  and  _354
REMARK  142  A    between atoms: _354  and  _355
REMARK  143  A    between atoms: _354  and  _357
REMARK  144  A    between atoms: _357  and  _358
REMARK  145  A    between atoms: _361  and  _363
REMARK  146  A    between atoms: _363  and  _364
REMARK  147  A    between atoms: _363  and  _366
REMARK  148  A    between atoms: _366  and  _367
REMARK  149  A    between atoms: _372  and  _374
REMARK  150  A    between atoms: _374  and  _375
REMARK  151  A    between atoms: _374  and  _377
REMARK  152  A    between atoms: _377  and  _378
REMARK  153  A    between atoms: _384  and  _386
REMARK  154  A    between atoms: _386  and  _387
REMARK  155  A    between atoms: _390  and  _392
REMARK  156  A    between atoms: _392  and  _393
REMARK  157  A    between atoms: _392  and  _395
REMARK  158  A    between atoms: _395  and  _396
REMARK  159  A    between atoms: _399  and  _401
REMARK  160  A    between atoms: _401  and  _402
REMARK  161  A    between atoms: _404  and  _406
REMARK  162  A    between atoms: _406  and  _407
REMARK  163  A    between atoms: _406  and  _409
REMARK  164  A    between atoms: _409  and  _410
REMARK  165  A    between atoms: _415  and  _417
REMARK  166  A    between atoms: _417  and  _418
REMARK  167  A    between atoms: _417  and  _420
REMARK  168  A    between atoms: _420  and  _421
REMARK  169  A    between atoms: _431  and  _433
REMARK  170  A    between atoms: _433  and  _434
REMARK  171  A    between atoms: _436  and  _438
REMARK  172  A    between atoms: _438  and  _439
REMARK  173  A    between atoms: _438  and  _441
REMARK  174  A    between atoms: _443  and  _445
REMARK  175  A    between atoms: _445  and  _446
REMARK  176  A    between atoms: _448  and  _450
REMARK  177  A    between atoms: _450  and  _451
REMARK  178  A    between atoms: _454  and  _456
REMARK  179  A    between atoms: _456  and  _457
REMARK  180  A    between atoms: _456  and  _459
REMARK  181  A    between atoms: _459  and  _460
REMARK  182  A    between atoms: _466  and  _468
REMARK  183  A    between atoms: _468  and  _469
REMARK  184  A    between atoms: _471  and  _473
REMARK  185  A    between atoms: _473  and  _474
REMARK  186  A    between atoms: _476  and  _478
REMARK  187  A    between atoms: _478  and  _479
REMARK  188  A    between atoms: _482  and  _484
REMARK  189  A    between atoms: _484  and  _485
REMARK  190  A    between atoms: _484  and  _487
REMARK  191  A    between atoms: _487  and  _488
REMARK  192  A    between atoms: _488  and  _489
REMARK  193  A    between atoms: _489  and  _490
REMARK  194  A    between atoms: _490  and  _491
REMARK  195  A    between atoms: _495  and  _497
REMARK  196  A    between atoms: _497  and  _498
REMARK  197  A    between atoms: _497  and  _500
REMARK  198  A    between atoms: _500  and  _501
REMARK  199  A    between atoms: _506  and  _507
REMARK  200  A    between atoms: _509  and  _511
REMARK  201  A    between atoms: _511  and  _512
REMARK  202  A    between atoms: _511  and  _514
REMARK  203  A    between atoms: _514  and  _515
REMARK  204  A    between atoms: _521  and  _523
REMARK  205  A    between atoms: _523  and  _524
REMARK  206  A    between atoms: _523  and  _526
REMARK  207  A    between atoms: _526  and  _527
REMARK  208  A    between atoms: _530  and  _532
REMARK  209  A    between atoms: _532  and  _533
REMARK  210  A    between atoms: _532  and  _535
REMARK  211  A    between atoms: _535  and  _536
REMARK  212  A    between atoms: _542  and  _544
REMARK  213  A    between atoms: _544  and  _545
REMARK  214  A    between atoms: _547  and  _549
REMARK  215  A    between atoms: _549  and  _550
REMARK  216  A    between atoms: _549  and  _552
REMARK  217  A    between atoms: _552  and  _553
REMARK  218  A    between atoms: _556  and  _558
REMARK  219  A    between atoms: _558  and  _559
REMARK  220  A    between atoms: _558  and  _561
REMARK  221  A    between atoms: _561  and  _562
REMARK                            x       y       z     vdW  Elec       q    Type
REMARK                         _______ _______ _______ _____ _____    ______ ____
ROOT
ATOM      1  O   HOH     1      21.295   1.060  -7.873  0.00  0.00    +0.000 OA
ENDROOT
TORSDOF 0
REMARK  Name = ../refined-set-2016/4b1j/4b1j_pocket.pdb
REMARK  221 active torsions:
REMARK  status: ('A' for Active; 'I' for Inactive)
REMARK    1  A    between atoms: _1  and  _3
REMARK    2  A    between atoms: _3  and  _4
REMARK    3  A    between atoms: _3  and  _6
REMARK    4  A    between atoms: _6  and  _7
REMARK    5  A    between atoms: _7  and  _8
REMARK    6  A    between atoms: _11  and  _13
REMARK    7  A    between atoms: _13  and  _14
REMARK    8  A    between atoms: _16  and  _18
REMARK    9  A    between atoms: _18  and  _19
REMARK   10  A    between atoms: _18  and  _21
REMARK   11  A    between atoms: _21  and  _22
REMARK   12  A    between atoms: _25  and  _27
REMARK   13  A    between atoms: _27  and  _28
REMARK   14  A    between atoms: _27  and  _30
REMARK   15  A    between atoms: _30  and  _31
REMARK   16  A    between atoms: _34  and  _36
REMARK   17  A    between atoms: _36  and  _37
REMARK   18  A    between atoms: _36  and  _39
REMARK   19  A    between atoms: _39  and  _40
REMARK   20  A    between atoms: _40  and  _41
REMARK   21  A    between atoms: _44  and  _46
REMARK   22  A    between atoms: _46  and  _47
REMARK   23  A    between atoms: _46  and  _49
REMARK   24  A    between atoms: _49  and  _50
REMARK   25  A    between atoms: _50  and  _51
REMARK   26  A    between atoms: _54  and  _56
REMARK   27  A    between atoms: _56  and  _57
REMARK   28  A    between atoms: _56  and  _59
REMARK   29  A    between atoms: _59  and  _60
REMARK   30  A    between atoms: _65  and  _67
REMARK   31  A    between atoms: _67  and  _68
REMARK   32  A    between atoms: _67  and  _70
REMARK   33  A    between atoms: _73  and  _75
REMARK   34  A    between atoms: _75  and  _76
REMARK   35  A    between atoms: _75  and  _78
REMARK   36  A    between atoms: _78  and  _79
REMARK   37  A    between atoms: _82  and  _84
REMARK   38  A    between atoms: _84  and  _85
REMARK   39  A    between atoms: _84  and  _87
REMARK   40  A    between atoms: _87  and  _88
REMARK   41  A    between atoms: _94  and  _96
REMARK   42  A    between atoms: _96  and  _97
REMARK   43  A    between atoms: _100  and  _102
REMARK   44  A    between atoms: _102  and  _103
REMARK   45  A    between atoms: _102  and  _105
REMARK   46  A    between atoms: _105  and  _106
REMARK   47  A    between atoms: _111  and  _113
REMARK   48  A    between atoms: _113  and  _114
REMARK   49  A    between atoms: _113  and  _116
REMARK   50  A    between atoms: _116  and  _117
REMARK   51  A    between atoms: _117  and  _118
REMARK   52  A    between atoms: _118  and  _119
REMARK   53  A    between atoms: _128  and  _130
REMARK   54  A    between atoms: _130  and  _131
REMARK   55  A    between atoms: _130  and  _133
REMARK   56  A    between atoms: _133  and  _134
REMARK   57  A    between atoms: _140  and  _142
REMARK   58  A    between atoms: _142  and  _143
REMARK   59  A    between atoms: _142  and  _145
REMARK   60  A    between atoms: _148  and  _150
REMARK   61  A    between atoms: _150  and  _151
REMARK   62  A    between atoms: _153  and  _155
REMARK   63  A    between atoms: _155  and  _156
REMARK   64  A    between atoms: _158  and  _160
REMARK   65  A    between atoms: _160  and  _161
REMARK   66  A    between atoms: _163  and  _165
REMARK   67  A    between atoms: _165  and  _166
REMARK   68  A    between atoms: _165  and  _168
REMARK   69  A    between atoms: _171  and  _173
REMARK   70  A    between atoms: _173  and  _174
REMARK   71  A    between atoms: _176  and  _178
REMARK   72  A    between atoms: _178  and  _179
REMARK   73  A    between atoms: _178  and  _181
REMARK   74  A    between atoms: _181  and  _182
REMARK   75  A    between atoms: _185  and  _187
REMARK   76  A    between atoms: _187  and  _188
REMARK   77  A    between atoms: _187  and  _190
REMARK   78  A    between atoms: _193  and  _195
REMARK   79  A    between atoms: _195  and  _196
REMARK   80  A    between atoms: _195  and  _198
REMARK   81  A    between atoms: _198  and  _199
REMARK   82  A    between atoms: _199  and  _200
REMARK   83  A    between atoms: _205  and  _207
REMARK   84  A    between atoms: _207  and  _208
REMARK   85  A    between atoms: _207  and  _210
REMARK   86  A    between atoms: _210  and  _211
REMARK   87  A    between atoms: _211  and  _212
REMARK   88  A    between atoms: _215  and  _217
REMARK   89  A    between atoms: _217  and  _218
REMARK   90  A    between atoms: _217  and  _220
REMARK   91  A    between atoms: _220  and  _221
REMARK   92  A    between atoms: _221  and  _222
REMARK   93  A    between atoms: _225  and  _227
REMARK   94  A    between atoms: _227  and  _228
REMARK   95  A    between atoms: _227  and  _230
REMARK   96  A    between atoms: _230  and  _231
REMARK   97  A    between atoms: _234  and  _236
REMARK   98  A    between atoms: _236  and  _237
REMARK   99  A    between atoms: _236  and  _239
REMARK  100  A    between atoms: _239  and  _240
REMARK  101  A    between atoms: _240  and  _241
REMARK  102  A    between atoms: _241  and  _242
REMARK  103  A    between atoms: _251  and  _253
REMARK  104  A    between atoms: _253  and  _254
REMARK  105  A    between atoms: _253  and  _256
REMARK  106  A    between atoms: _256  and  _257
REMARK  107  A    between atoms: _263  and  _265
REMARK  108  A    between atoms: _265  and  _266
REMARK  109  A    between atoms: _265  and  _268
REMARK  110  A    between atoms: _268  and  _269
REMARK  111  A    between atoms: _272  and  _274
REMARK  112  A    between atoms: _274  and  _275
REMARK  113  A    between atoms: _274  and  _277
REMARK  114  A    between atoms: _277  and  _278
REMARK  115  A    between atoms: _278  and  _279
REMARK  116  A    between atoms: _279  and  _280
REMARK  117  A    between atoms: _289  and  _291
REMARK  118  A    between atoms: _291  and  _292
REMARK  119  A    between atoms: _291  and  _294
REMARK  120  A    between atoms: _294  and  _295
REMARK  121  A    between atoms: _300  and  _301
REMARK  122  A    between atoms: _303  and  _305
REMARK  123  A    between atoms: _305  and  _306
REMARK  124  A    between atoms: _308  and  _310
REMARK  125  A    between atoms: _310  and  _311
REMARK  126  A    between atoms: _310  and  _313
REMARK  127  A    between atoms: _313  and  _314
REMARK  128  A    between atoms: _319  and  _320
REMARK  129  A    between atoms: _322  and  _324
REMARK  130  A    between atoms: _324  and  _325
REMARK  131  A    between atoms: _328  and  _330
REMARK  132  A    between atoms: _330  and  _331
REMARK  133  A    between atoms: _330  and  _333
REMARK  134  A    between atoms: _333  and  _334
REMARK  135  A    between atoms: _337  and  _339
REMARK  136  A    between atoms: _339  and  _340
REMARK  137  A    between atoms: _339  and  _342
REMARK  138  A    between atoms: _342  and  _343
REMARK  139  A    between atoms: _346  and  _348
REMARK  140  A    between atoms: _348  and  _349
REMARK  141  A    between atoms: _352  and  _354
REMARK  142  A    between atoms: _354  and  _355
REMARK  143  A    between atoms: _354  and  _357
REMARK  144  A    between atoms: _357  and  _358
REMARK  145  A    between atoms: _361  and  _363
REMARK  146  A    between atoms: _363  and  _364
REMARK  147  A    between atoms: _363  and  _366
REMARK  148  A    between atoms: _366  and  _367
REMARK  149  A    between atoms: _372  and  _374
REMARK  150  A    between atoms: _374  and  _375
REMARK  151  A    between atoms: _374  and  _377
REMARK  152  A    between atoms: _377  and  _378
REMARK  153  A    between atoms: _384  and  _386
REMARK  154  A    between atoms: _386  and  _387
REMARK  155  A    between atoms: _390  and  _392
REMARK  156  A    between atoms: _392  and  _393
REMARK  157  A    between atoms: _392  and  _395
REMARK  158  A    between atoms: _395  and  _396
REMARK  159  A    between atoms: _399  and  _401
REMARK  160  A    between atoms: _401  and  _402
REMARK  161  A    between atoms: _404  and  _406
REMARK  162  A    between atoms: _406  and  _407
REMARK  163  A    between atoms: _406  and  _409
REMARK  164  A    between atoms: _409  and  _410
REMARK  165  A    between atoms: _415  and  _417
REMARK  166  A    between atoms: _417  and  _418
REMARK  167  A    between atoms: _417  and  _420
REMARK  168  A    between atoms: _420  and  _421
REMARK  169  A    between atoms: _431  and  _433
REMARK  170  A    between atoms: _433  and  _434
REMARK  171  A    between atoms: _436  and  _438
REMARK  172  A    between atoms: _438  and  _439
REMARK  173  A    between atoms: _438  and  _441
REMARK  174  A    between atoms: _443  and  _445
REMARK  175  A    between atoms: _445  and  _446
REMARK  176  A    between atoms: _448  and  _450
REMARK  177  A    between atoms: _450  and  _451
REMARK  178  A    between atoms: _454  and  _456
REMARK  179  A    between atoms: _456  and  _457
REMARK  180  A    between atoms: _456  and  _459
REMARK  181  A    between atoms: _459  and  _460
REMARK  182  A    between atoms: _466  and  _468
REMARK  183  A    between atoms: _468  and  _469
REMARK  184  A    between atoms: _471  and  _473
REMARK  185  A    between atoms: _473  and  _474
REMARK  186  A    between atoms: _476  and  _478
REMARK  187  A    between atoms: _478  and  _479
REMARK  188  A    between atoms: _482  and  _484
REMARK  189  A    between atoms: _484  and  _485
REMARK  190  A    between atoms: _484  and  _487
REMARK  191  A    between atoms: _487  and  _488
REMARK  192  A    between atoms: _488  and  _489
REMARK  193  A    between atoms: _489  and  _490
REMARK  194  A    between atoms: _490  and  _491
REMARK  195  A    between atoms: _495  and  _497
REMARK  196  A    between atoms: _497  and  _498
REMARK  197  A    between atoms: _497  and  _500
REMARK  198  A    between atoms: _500  and  _501
REMARK  199  A    between atoms: _506  and  _507
REMARK  200  A    between atoms: _509  and  _511
REMARK  201  A    between atoms: _511  and  _512
REMARK  202  A    between atoms: _511  and  _514
REMARK  203  A    between atoms: _514  and  _515
REMARK  204  A    between atoms: _521  and  _523
REMARK  205  A    between atoms: _523  and  _524
REMARK  206  A    between atoms: _523  and  _526
REMARK  207  A    between atoms: _526  and  _527
REMARK  208  A    between atoms: _530  and  _532
REMARK  209  A    between atoms: _532  and  _533
REMARK  210  A    between atoms: _532  and  _535
REMARK  211  A    between atoms: _535  and  _536
REMARK  212  A    between atoms: _542  and  _544
REMARK  213  A    between atoms: _544  and  _545
REMARK  214  A    between atoms: _547  and  _549
REMARK  215  A    between atoms: _549  and  _550
REMARK  216  A    between atoms: _549  and  _552
REMARK  217  A    between atoms: _552  and  _553
REMARK  218  A    between atoms: _556  and  _558
REMARK  219  A    between atoms: _558  and  _559
REMARK  220  A    between atoms: _558  and  _561
REMARK  221  A    between atoms: _561  and  _562
REMARK                            x       y       z     vdW  Elec       q    Type
REMARK                         _______ _______ _______ _____ _____    ______ ____
ROOT
ATOM      1  O   HOH     1      24.143   0.720  -1.682  0.00  0.00    +0.000 OA
ENDROOT
TORSDOF 0
REMARK  Name = ../refined-set-2016/4b1j/4b1j_pocket.pdb
REMARK  221 active torsions:
REMARK  status: ('A' for Active; 'I' for Inactive)
REMARK    1  A    between atoms: _1  and  _3
REMARK    2  A    between atoms: _3  and  _4
REMARK    3  A    between atoms: _3  and  _6
REMARK    4  A    between atoms: _6  and  _7
REMARK    5  A    between atoms: _7  and  _8
REMARK    6  A    between atoms: _11  and  _13
REMARK    7  A    between atoms: _13  and  _14
REMARK    8  A    between atoms: _16  and  _18
REMARK    9  A    between atoms: _18  and  _19
REMARK   10  A    between atoms: _18  and  _21
REMARK   11  A    between atoms: _21  and  _22
REMARK   12  A    between atoms: _25  and  _27
REMARK   13  A    between atoms: _27  and  _28
REMARK   14  A    between atoms: _27  and  _30
REMARK   15  A    between atoms: _30  and  _31
REMARK   16  A    between atoms: _34  and  _36
REMARK   17  A    between atoms: _36  and  _37
REMARK   18  A    between atoms: _36  and  _39
REMARK   19  A    between atoms: _39  and  _40
REMARK   20  A    between atoms: _40  and  _41
REMARK   21  A    between atoms: _44  and  _46
REMARK   22  A    between atoms: _46  and  _47
REMARK   23  A    between atoms: _46  and  _49
REMARK   24  A    between atoms: _49  and  _50
REMARK   25  A    between atoms: _50  and  _51
REMARK   26  A    between atoms: _54  and  _56
REMARK   27  A    between atoms: _56  and  _57
REMARK   28  A    between atoms: _56  and  _59
REMARK   29  A    between atoms: _59  and  _60
REMARK   30  A    between atoms: _65  and  _67
REMARK   31  A    between atoms: _67  and  _68
REMARK   32  A    between atoms: _67  and  _70
REMARK   33  A    between atoms: _73  and  _75
REMARK   34  A    between atoms: _75  and  _76
REMARK   35  A    between atoms: _75  and  _78
REMARK   36  A    between atoms: _78  and  _79
REMARK   37  A    between atoms: _82  and  _84
REMARK   38  A    between atoms: _84  and  _85
REMARK   39  A    between atoms: _84  and  _87
REMARK   40  A    between atoms: _87  and  _88
REMARK   41  A    between atoms: _94  and  _96
REMARK   42  A    between atoms: _96  and  _97
REMARK   43  A    between atoms: _100  and  _102
REMARK   44  A    between atoms: _102  and  _103
REMARK   45  A    between atoms: _102  and  _105
REMARK   46  A    between atoms: _105  and  _106
REMARK   47  A    between atoms: _111  and  _113
REMARK   48  A    between atoms: _113  and  _114
REMARK   49  A    between atoms: _113  and  _116
REMARK   50  A    between atoms: _116  and  _117
REMARK   51  A    between atoms: _117  and  _118
REMARK   52  A    between atoms: _118  and  _119
REMARK   53  A    between atoms: _128  and  _130
REMARK   54  A    between atoms: _130  and  _131
REMARK   55  A    between atoms: _130  and  _133
REMARK   56  A    between atoms: _133  and  _134
REMARK   57  A    between atoms: _140  and  _142
REMARK   58  A    between atoms: _142  and  _143
REMARK   59  A    between atoms: _142  and  _145
REMARK   60  A    between atoms: _148  and  _150
REMARK   61  A    between atoms: _150  and  _151
REMARK   62  A    between atoms: _153  and  _155
REMARK   63  A    between atoms: _155  and  _156
REMARK   64  A    between atoms: _158  and  _160
REMARK   65  A    between atoms: _160  and  _161
REMARK   66  A    between atoms: _163  and  _165
REMARK   67  A    between atoms: _165  and  _166
REMARK   68  A    between atoms: _165  and  _168
REMARK   69  A    between atoms: _171  and  _173
REMARK   70  A    between atoms: _173  and  _174
REMARK   71  A    between atoms: _176  and  _178
REMARK   72  A    between atoms: _178  and  _179
REMARK   73  A    between atoms: _178  and  _181
REMARK   74  A    between atoms: _181  and  _182
REMARK   75  A    between atoms: _185  and  _187
REMARK   76  A    between atoms: _187  and  _188
REMARK   77  A    between atoms: _187  and  _190
REMARK   78  A    between atoms: _193  and  _195
REMARK   79  A    between atoms: _195  and  _196
REMARK   80  A    between atoms: _195  and  _198
REMARK   81  A    between atoms: _198  and  _199
REMARK   82  A    between atoms: _199  and  _200
REMARK   83  A    between atoms: _205  and  _207
REMARK   84  A    between atoms: _207  and  _208
REMARK   85  A    between atoms: _207  and  _210
REMARK   86  A    between atoms: _210  and  _211
REMARK   87  A    between atoms: _211  and  _212
REMARK   88  A    between atoms: _215  and  _217
REMARK   89  A    between atoms: _217  and  _218
REMARK   90  A    between atoms: _217  and  _220
REMARK   91  A    between atoms: _220  and  _221
REMARK   92  A    between atoms: _221  and  _222
REMARK   93  A    between atoms: _225  and  _227
REMARK   94  A    between atoms: _227  and  _228
REMARK   95  A    between atoms: _227  and  _230
REMARK   96  A    between atoms: _230  and  _231
REMARK   97  A    between atoms: _234  and  _236
REMARK   98  A    between atoms: _236  and  _237
REMARK   99  A    between atoms: _236  and  _239
REMARK  100  A    between atoms: _239  and  _240
REMARK  101  A    between atoms: _240  and  _241
REMARK  102  A    between atoms: _241  and  _242
REMARK  103  A    between atoms: _251  and  _253
REMARK  104  A    between atoms: _253  and  _254
REMARK  105  A    between atoms: _253  and  _256
REMARK  106  A    between atoms: _256  and  _257
REMARK  107  A    between atoms: _263  and  _265
REMARK  108  A    between atoms: _265  and  _266
REMARK  109  A    between atoms: _265  and  _268
REMARK  110  A    between atoms: _268  and  _269
REMARK  111  A    between atoms: _272  and  _274
REMARK  112  A    between atoms: _274  and  _275
REMARK  113  A    between atoms: _274  and  _277
REMARK  114  A    between atoms: _277  and  _278
REMARK  115  A    between atoms: _278  and  _279
REMARK  116  A    between atoms: _279  and  _280
REMARK  117  A    between atoms: _289  and  _291
REMARK  118  A    between atoms: _291  and  _292
REMARK  119  A    between atoms: _291  and  _294
REMARK  120  A    between atoms: _294  and  _295
REMARK  121  A    between atoms: _300  and  _301
REMARK  122  A    between atoms: _303  and  _305
REMARK  123  A    between atoms: _305  and  _306
REMARK  124  A    between atoms: _308  and  _310
REMARK  125  A    between atoms: _310  and  _311
REMARK  126  A    between atoms: _310  and  _313
REMARK  127  A    between atoms: _313  and  _314
REMARK  128  A    between atoms: _319  and  _320
REMARK  129  A    between atoms: _322  and  _324
REMARK  130  A    between atoms: _324  and  _325
REMARK  131  A    between atoms: _328  and  _330
REMARK  132  A    between atoms: _330  and  _331
REMARK  133  A    between atoms: _330  and  _333
REMARK  134  A    between atoms: _333  and  _334
REMARK  135  A    between atoms: _337  and  _339
REMARK  136  A    between atoms: _339  and  _340
REMARK  137  A    between atoms: _339  and  _342
REMARK  138  A    between atoms: _342  and  _343
REMARK  139  A    between atoms: _346  and  _348
REMARK  140  A    between atoms: _348  and  _349
REMARK  141  A    between atoms: _352  and  _354
REMARK  142  A    between atoms: _354  and  _355
REMARK  143  A    between atoms: _354  and  _357
REMARK  144  A    between atoms: _357  and  _358
REMARK  145  A    between atoms: _361  and  _363
REMARK  146  A    between atoms: _363  and  _364
REMARK  147  A    between atoms: _363  and  _366
REMARK  148  A    between atoms: _366  and  _367
REMARK  149  A    between atoms: _372  and  _374
REMARK  150  A    between atoms: _374  and  _375
REMARK  151  A    between atoms: _374  and  _377
REMARK  152  A    between atoms: _377  and  _378
REMARK  153  A    between atoms: _384  and  _386
REMARK  154  A    between atoms: _386  and  _387
REMARK  155  A    between atoms: _390  and  _392
REMARK  156  A    between atoms: _392  and  _393
REMARK  157  A    between atoms: _392  and  _395
REMARK  158  A    between atoms: _395  and  _396
REMARK  159  A    between atoms: _399  and  _401
REMARK  160  A    between atoms: _401  and  _402
REMARK  161  A    between atoms: _404  and  _406
REMARK  162  A    between atoms: _406  and  _407
REMARK  163  A    between atoms: _406  and  _409
REMARK  164  A    between atoms: _409  and  _410
REMARK  165  A    between atoms: _415  and  _417
REMARK  166  A    between atoms: _417  and  _418
REMARK  167  A    between atoms: _417  and  _420
REMARK  168  A    between atoms: _420  and  _421
REMARK  169  A    between atoms: _431  and  _433
REMARK  170  A    between atoms: _433  and  _434
REMARK  171  A    between atoms: _436  and  _438
REMARK  172  A    between atoms: _438  and  _439
REMARK  173  A    between atoms: _438  and  _441
REMARK  174  A    between atoms: _443  and  _445
REMARK  175  A    between atoms: _445  and  _446
REMARK  176  A    between atoms: _448  and  _450
REMARK  177  A    between atoms: _450  and  _451
REMARK  178  A    between atoms: _454  and  _456
REMARK  179  A    between atoms: _456  and  _457
REMARK  180  A    between atoms: _456  and  _459
REMARK  181  A    between atoms: _459  and  _460
REMARK  182  A    between atoms: _466  and  _468
REMARK  183  A    between atoms: _468  and  _469
REMARK  184  A    between atoms: _471  and  _473
REMARK  185  A    between atoms: _473  and  _474
REMARK  186  A    between atoms: _476  and  _478
REMARK  187  A    between atoms: _478  and  _479
REMARK  188  A    between atoms: _482  and  _484
REMARK  189  A    between atoms: _484  and  _485
REMARK  190  A    between atoms: _484  and  _487
REMARK  191  A    between atoms: _487  and  _488
REMARK  192  A    between atoms: _488  and  _489
REMARK  193  A    between atoms: _489  and  _490
REMARK  194  A    between atoms: _490  and  _491
REMARK  195  A    between atoms: _495  and  _497
REMARK  196  A    between atoms: _497  and  _498
REMARK  197  A    between atoms: _497  and  _500
REMARK  198  A    between atoms: _500  and  _501
REMARK  199  A    between atoms: _506  and  _507
REMARK  200  A    between atoms: _509  and  _511
REMARK  201  A    between atoms: _511  and  _512
REMARK  202  A    between atoms: _511  and  _514
REMARK  203  A    between atoms: _514  and  _515
REMARK  204  A    between atoms: _521  and  _523
REMARK  205  A    between atoms: _523  and  _524
REMARK  206  A    between atoms: _523  and  _526
REMARK  207  A    between atoms: _526  and  _527
REMARK  208  A    between atoms: _530  and  _532
REMARK  209  A    between atoms: _532  and  _533
REMARK  210  A    between atoms: _532  and  _535
REMARK  211  A    between atoms: _535  and  _536
REMARK  212  A    between atoms: _542  and  _544
REMARK  213  A    between atoms: _544  and  _545
REMARK  214  A    between atoms: _547  and  _549
REMARK  215  A    between atoms: _549  and  _550
REMARK  216  A    between atoms: _549  and  _552
REMARK  217  A    between atoms: _552  and  _553
REMARK  218  A    between atoms: _556  and  _558
REMARK  219  A    between atoms: _558  and  _559
REMARK  220  A    between atoms: _558  and  _561
REMARK  221  A    between atoms: _561  and  _562
REMARK                            x       y       z     vdW  Elec       q    Type
REMARK                         _______ _______ _______ _____ _____    ______ ____
ROOT
ATOM      1  O   HOH     1      25.203   0.653  -6.984  0.00  0.00    +0.000 OA
ENDROOT
TORSDOF 0
REMARK  Name = ../refined-set-2016/4b1j/4b1j_pocket.pdb
REMARK  221 active torsions:
REMARK  status: ('A' for Active; 'I' for Inactive)
REMARK    1  A    between atoms: _1  and  _3
REMARK    2  A    between atoms: _3  and  _4
REMARK    3  A    between atoms: _3  and  _6
REMARK    4  A    between atoms: _6  and  _7
REMARK    5  A    between atoms: _7  and  _8
REMARK    6  A    between atoms: _11  and  _13
REMARK    7  A    between atoms: _13  and  _14
REMARK    8  A    between atoms: _16  and  _18
REMARK    9  A    between atoms: _18  and  _19
REMARK   10  A    between atoms: _18  and  _21
REMARK   11  A    between atoms: _21  and  _22
REMARK   12  A    between atoms: _25  and  _27
REMARK   13  A    between atoms: _27  and  _28
REMARK   14  A    between atoms: _27  and  _30
REMARK   15  A    between atoms: _30  and  _31
REMARK   16  A    between atoms: _34  and  _36
REMARK   17  A    between atoms: _36  and  _37
REMARK   18  A    between atoms: _36  and  _39
REMARK   19  A    between atoms: _39  and  _40
REMARK   20  A    between atoms: _40  and  _41
REMARK   21  A    between atoms: _44  and  _46
REMARK   22  A    between atoms: _46  and  _47
REMARK   23  A    between atoms: _46  and  _49
REMARK   24  A    between atoms: _49  and  _50
REMARK   25  A    between atoms: _50  and  _51
REMARK   26  A    between atoms: _54  and  _56
REMARK   27  A    between atoms: _56  and  _57
REMARK   28  A    between atoms: _56  and  _59
REMARK   29  A    between atoms: _59  and  _60
REMARK   30  A    between atoms: _65  and  _67
REMARK   31  A    between atoms: _67  and  _68
REMARK   32  A    between atoms: _67  and  _70
REMARK   33  A    between atoms: _73  and  _75
REMARK   34  A    between atoms: _75  and  _76
REMARK   35  A    between atoms: _75  and  _78
REMARK   36  A    between atoms: _78  and  _79
REMARK   37  A    between atoms: _82  and  _84
REMARK   38  A    between atoms: _84  and  _85
REMARK   39  A    between atoms: _84  and  _87
REMARK   40  A    between atoms: _87  and  _88
REMARK   41  A    between atoms: _94  and  _96
REMARK   42  A    between atoms: _96  and  _97
REMARK   43  A    between atoms: _100  and  _102
REMARK   44  A    between atoms: _102  and  _103
REMARK   45  A    between atoms: _102  and  _105
REMARK   46  A    between atoms: _105  and  _106
REMARK   47  A    between atoms: _111  and  _113
REMARK   48  A    between atoms: _113  and  _114
REMARK   49  A    between atoms: _113  and  _116
REMARK   50  A    between atoms: _116  and  _117
REMARK   51  A    between atoms: _117  and  _118
REMARK   52  A    between atoms: _118  and  _119
REMARK   53  A    between atoms: _128  and  _130
REMARK   54  A    between atoms: _130  and  _131
REMARK   55  A    between atoms: _130  and  _133
REMARK   56  A    between atoms: _133  and  _134
REMARK   57  A    between atoms: _140  and  _142
REMARK   58  A    between atoms: _142  and  _143
REMARK   59  A    between atoms: _142  and  _145
REMARK   60  A    between atoms: _148  and  _150
REMARK   61  A    between atoms: _150  and  _151
REMARK   62  A    between atoms: _153  and  _155
REMARK   63  A    between atoms: _155  and  _156
REMARK   64  A    between atoms: _158  and  _160
REMARK   65  A    between atoms: _160  and  _161
REMARK   66  A    between atoms: _163  and  _165
REMARK   67  A    between atoms: _165  and  _166
REMARK   68  A    between atoms: _165  and  _168
REMARK   69  A    between atoms: _171  and  _173
REMARK   70  A    between atoms: _173  and  _174
REMARK   71  A    between atoms: _176  and  _178
REMARK   72  A    between atoms: _178  and  _179
REMARK   73  A    between atoms: _178  and  _181
REMARK   74  A    between atoms: _181  and  _182
REMARK   75  A    between atoms: _185  and  _187
REMARK   76  A    between atoms: _187  and  _188
REMARK   77  A    between atoms: _187  and  _190
REMARK   78  A    between atoms: _193  and  _195
REMARK   79  A    between atoms: _195  and  _196
REMARK   80  A    between atoms: _195  and  _198
REMARK   81  A    between atoms: _198  and  _199
REMARK   82  A    between atoms: _199  and  _200
REMARK   83  A    between atoms: _205  and  _207
REMARK   84  A    between atoms: _207  and  _208
REMARK   85  A    between atoms: _207  and  _210
REMARK   86  A    between atoms: _210  and  _211
REMARK   87  A    between atoms: _211  and  _212
REMARK   88  A    between atoms: _215  and  _217
REMARK   89  A    between atoms: _217  and  _218
REMARK   90  A    between atoms: _217  and  _220
REMARK   91  A    between atoms: _220  and  _221
REMARK   92  A    between atoms: _221  and  _222
REMARK   93  A    between atoms: _225  and  _227
REMARK   94  A    between atoms: _227  and  _228
REMARK   95  A    between atoms: _227  and  _230
REMARK   96  A    between atoms: _230  and  _231
REMARK   97  A    between atoms: _234  and  _236
REMARK   98  A    between atoms: _236  and  _237
REMARK   99  A    between atoms: _236  and  _239
REMARK  100  A    between atoms: _239  and  _240
REMARK  101  A    between atoms: _240  and  _241
REMARK  102  A    between atoms: _241  and  _242
REMARK  103  A    between atoms: _251  and  _253
REMARK  104  A    between atoms: _253  and  _254
REMARK  105  A    between atoms: _253  and  _256
REMARK  106  A    between atoms: _256  and  _257
REMARK  107  A    between atoms: _263  and  _265
REMARK  108  A    between atoms: _265  and  _266
REMARK  109  A    between atoms: _265  and  _268
REMARK  110  A    between atoms: _268  and  _269
REMARK  111  A    between atoms: _272  and  _274
REMARK  112  A    between atoms: _274  and  _275
REMARK  113  A    between atoms: _274  and  _277
REMARK  114  A    between atoms: _277  and  _278
REMARK  115  A    between atoms: _278  and  _279
REMARK  116  A    between atoms: _279  and  _280
REMARK  117  A    between atoms: _289  and  _291
REMARK  118  A    between atoms: _291  and  _292
REMARK  119  A    between atoms: _291  and  _294
REMARK  120  A    between atoms: _294  and  _295
REMARK  121  A    between atoms: _300  and  _301
REMARK  122  A    between atoms: _303  and  _305
REMARK  123  A    between atoms: _305  and  _306
REMARK  124  A    between atoms: _308  and  _310
REMARK  125  A    between atoms: _310  and  _311
REMARK  126  A    between atoms: _310  and  _313
REMARK  127  A    between atoms: _313  and  _314
REMARK  128  A    between atoms: _319  and  _320
REMARK  129  A    between atoms: _322  and  _324
REMARK  130  A    between atoms: _324  and  _325
REMARK  131  A    between atoms: _328  and  _330
REMARK  132  A    between atoms: _330  and  _331
REMARK  133  A    between atoms: _330  and  _333
REMARK  134  A    between atoms: _333  and  _334
REMARK  135  A    between atoms: _337  and  _339
REMARK  136  A    between atoms: _339  and  _340
REMARK  137  A    between atoms: _339  and  _342
REMARK  138  A    between atoms: _342  and  _343
REMARK  139  A    between atoms: _346  and  _348
REMARK  140  A    between atoms: _348  and  _349
REMARK  141  A    between atoms: _352  and  _354
REMARK  142  A    between atoms: _354  and  _355
REMARK  143  A    between atoms: _354  and  _357
REMARK  144  A    between atoms: _357  and  _358
REMARK  145  A    between atoms: _361  and  _363
REMARK  146  A    between atoms: _363  and  _364
REMARK  147  A    between atoms: _363  and  _366
REMARK  148  A    between atoms: _366  and  _367
REMARK  149  A    between atoms: _372  and  _374
REMARK  150  A    between atoms: _374  and  _375
REMARK  151  A    between atoms: _374  and  _377
REMARK  152  A    between atoms: _377  and  _378
REMARK  153  A    between atoms: _384  and  _386
REMARK  154  A    between atoms: _386  and  _387
REMARK  155  A    between atoms: _390  and  _392
REMARK  156  A    between atoms: _392  and  _393
REMARK  157  A    between atoms: _392  and  _395
REMARK  158  A    between atoms: _395  and  _396
REMARK  159  A    between atoms: _399  and  _401
REMARK  160  A    between atoms: _401  and  _402
REMARK  161  A    between atoms: _404  and  _406
REMARK  162  A    between atoms: _406  and  _407
REMARK  163  A    between atoms: _406  and  _409
REMARK  164  A    between atoms: _409  and  _410
REMARK  165  A    between atoms: _415  and  _417
REMARK  166  A    between atoms: _417  and  _418
REMARK  167  A    between atoms: _417  and  _420
REMARK  168  A    between atoms: _420  and  _421
REMARK  169  A    between atoms: _431  and  _433
REMARK  170  A    between atoms: _433  and  _434
REMARK  171  A    between atoms: _436  and  _438
REMARK  172  A    between atoms: _438  and  _439
REMARK  173  A    between atoms: _438  and  _441
REMARK  174  A    between atoms: _443  and  _445
REMARK  175  A    between atoms: _445  and  _446
REMARK  176  A    between atoms: _448  and  _450
REMARK  177  A    between atoms: _450  and  _451
REMARK  178  A    between atoms: _454  and  _456
REMARK  179  A    between atoms: _456  and  _457
REMARK  180  A    between atoms: _456  and  _459
REMARK  181  A    between atoms: _459  and  _460
REMARK  182  A    between atoms: _466  and  _468
REMARK  183  A    between atoms: _468  and  _469
REMARK  184  A    between atoms: _471  and  _473
REMARK  185  A    between atoms: _473  and  _474
REMARK  186  A    between atoms: _476  and  _478
REMARK  187  A    between atoms: _478  and  _479
REMARK  188  A    between atoms: _482  and  _484
REMARK  189  A    between atoms: _484  and  _485
REMARK  190  A    between atoms: _484  and  _487
REMARK  191  A    between atoms: _487  and  _488
REMARK  192  A    between atoms: _488  and  _489
REMARK  193  A    between atoms: _489  and  _490
REMARK  194  A    between atoms: _490  and  _491
REMARK  195  A    between atoms: _495  and  _497
REMARK  196  A    between atoms: _497  and  _498
REMARK  197  A    between atoms: _497  and  _500
REMARK  198  A    between atoms: _500  and  _501
REMARK  199  A    between atoms: _506  and  _507
REMARK  200  A    between atoms: _509  and  _511
REMARK  201  A    between atoms: _511  and  _512
REMARK  202  A    between atoms: _511  and  _514
REMARK  203  A    between atoms: _514  and  _515
REMARK  204  A    between atoms: _521  and  _523
REMARK  205  A    between atoms: _523  and  _524
REMARK  206  A    between atoms: _523  and  _526
REMARK  207  A    between atoms: _526  and  _527
REMARK  208  A    between atoms: _530  and  _532
REMARK  209  A    between atoms: _532  and  _533
REMARK  210  A    between atoms: _532  and  _535
REMARK  211  A    between atoms: _535  and  _536
REMARK  212  A    between atoms: _542  and  _544
REMARK  213  A    between atoms: _544  and  _545
REMARK  214  A    between atoms: _547  and  _549
REMARK  215  A    between atoms: _549  and  _550
REMARK  216  A    between atoms: _549  and  _552
REMARK  217  A    between atoms: _552  and  _553
REMARK  218  A    between atoms: _556  and  _558
REMARK  219  A    between atoms: _558  and  _559
REMARK  220  A    between atoms: _558  and  _561
REMARK  221  A    between atoms: _561  and  _562
REMARK                            x       y       z     vdW  Elec       q    Type
REMARK                         _______ _______ _______ _____ _____    ______ ____
ROOT
ATOM      1  O   HOH     1      31.281   0.364   2.047  0.00  0.00    +0.000 OA
ENDROOT
TORSDOF 0
REMARK  Name = ../refined-set-2016/4b1j/4b1j_pocket.pdb
REMARK  221 active torsions:
REMARK  status: ('A' for Active; 'I' for Inactive)
REMARK    1  A    between atoms: _1  and  _3
REMARK    2  A    between atoms: _3  and  _4
REMARK    3  A    between atoms: _3  and  _6
REMARK    4  A    between atoms: _6  and  _7
REMARK    5  A    between atoms: _7  and  _8
REMARK    6  A    between atoms: _11  and  _13
REMARK    7  A    between atoms: _13  and  _14
REMARK    8  A    between atoms: _16  and  _18
REMARK    9  A    between atoms: _18  and  _19
REMARK   10  A    between atoms: _18  and  _21
REMARK   11  A    between atoms: _21  and  _22
REMARK   12  A    between atoms: _25  and  _27
REMARK   13  A    between atoms: _27  and  _28
REMARK   14  A    between atoms: _27  and  _30
REMARK   15  A    between atoms: _30  and  _31
REMARK   16  A    between atoms: _34  and  _36
REMARK   17  A    between atoms: _36  and  _37
REMARK   18  A    between atoms: _36  and  _39
REMARK   19  A    between atoms: _39  and  _40
REMARK   20  A    between atoms: _40  and  _41
REMARK   21  A    between atoms: _44  and  _46
REMARK   22  A    between atoms: _46  and  _47
REMARK   23  A    between atoms: _46  and  _49
REMARK   24  A    between atoms: _49  and  _50
REMARK   25  A    between atoms: _50  and  _51
REMARK   26  A    between atoms: _54  and  _56
REMARK   27  A    between atoms: _56  and  _57
REMARK   28  A    between atoms: _56  and  _59
REMARK   29  A    between atoms: _59  and  _60
REMARK   30  A    between atoms: _65  and  _67
REMARK   31  A    between atoms: _67  and  _68
REMARK   32  A    between atoms: _67  and  _70
REMARK   33  A    between atoms: _73  and  _75
REMARK   34  A    between atoms: _75  and  _76
REMARK   35  A    between atoms: _75  and  _78
REMARK   36  A    between atoms: _78  and  _79
REMARK   37  A    between atoms: _82  and  _84
REMARK   38  A    between atoms: _84  and  _85
REMARK   39  A    between atoms: _84  and  _87
REMARK   40  A    between atoms: _87  and  _88
REMARK   41  A    between atoms: _94  and  _96
REMARK   42  A    between atoms: _96  and  _97
REMARK   43  A    between atoms: _100  and  _102
REMARK   44  A    between atoms: _102  and  _103
REMARK   45  A    between atoms: _102  and  _105
REMARK   46  A    between atoms: _105  and  _106
REMARK   47  A    between atoms: _111  and  _113
REMARK   48  A    between atoms: _113  and  _114
REMARK   49  A    between atoms: _113  and  _116
REMARK   50  A    between atoms: _116  and  _117
REMARK   51  A    between atoms: _117  and  _118
REMARK   52  A    between atoms: _118  and  _119
REMARK   53  A    between atoms: _128  and  _130
REMARK   54  A    between atoms: _130  and  _131
REMARK   55  A    between atoms: _130  and  _133
REMARK   56  A    between atoms: _133  and  _134
REMARK   57  A    between atoms: _140  and  _142
REMARK   58  A    between atoms: _142  and  _143
REMARK   59  A    between atoms: _142  and  _145
REMARK   60  A    between atoms: _148  and  _150
REMARK   61  A    between atoms: _150  and  _151
REMARK   62  A    between atoms: _153  and  _155
REMARK   63  A    between atoms: _155  and  _156
REMARK   64  A    between atoms: _158  and  _160
REMARK   65  A    between atoms: _160  and  _161
REMARK   66  A    between atoms: _163  and  _165
REMARK   67  A    between atoms: _165  and  _166
REMARK   68  A    between atoms: _165  and  _168
REMARK   69  A    between atoms: _171  and  _173
REMARK   70  A    between atoms: _173  and  _174
REMARK   71  A    between atoms: _176  and  _178
REMARK   72  A    between atoms: _178  and  _179
REMARK   73  A    between atoms: _178  and  _181
REMARK   74  A    between atoms: _181  and  _182
REMARK   75  A    between atoms: _185  and  _187
REMARK   76  A    between atoms: _187  and  _188
REMARK   77  A    between atoms: _187  and  _190
REMARK   78  A    between atoms: _193  and  _195
REMARK   79  A    between atoms: _195  and  _196
REMARK   80  A    between atoms: _195  and  _198
REMARK   81  A    between atoms: _198  and  _199
REMARK   82  A    between atoms: _199  and  _200
REMARK   83  A    between atoms: _205  and  _207
REMARK   84  A    between atoms: _207  and  _208
REMARK   85  A    between atoms: _207  and  _210
REMARK   86  A    between atoms: _210  and  _211
REMARK   87  A    between atoms: _211  and  _212
REMARK   88  A    between atoms: _215  and  _217
REMARK   89  A    between atoms: _217  and  _218
REMARK   90  A    between atoms: _217  and  _220
REMARK   91  A    between atoms: _220  and  _221
REMARK   92  A    between atoms: _221  and  _222
REMARK   93  A    between atoms: _225  and  _227
REMARK   94  A    between atoms: _227  and  _228
REMARK   95  A    between atoms: _227  and  _230
REMARK   96  A    between atoms: _230  and  _231
REMARK   97  A    between atoms: _234  and  _236
REMARK   98  A    between atoms: _236  and  _237
REMARK   99  A    between atoms: _236  and  _239
REMARK  100  A    between atoms: _239  and  _240
REMARK  101  A    between atoms: _240  and  _241
REMARK  102  A    between atoms: _241  and  _242
REMARK  103  A    between atoms: _251  and  _253
REMARK  104  A    between atoms: _253  and  _254
REMARK  105  A    between atoms: _253  and  _256
REMARK  106  A    between atoms: _256  and  _257
REMARK  107  A    between atoms: _263  and  _265
REMARK  108  A    between atoms: _265  and  _266
REMARK  109  A    between atoms: _265  and  _268
REMARK  110  A    between atoms: _268  and  _269
REMARK  111  A    between atoms: _272  and  _274
REMARK  112  A    between atoms: _274  and  _275
REMARK  113  A    between atoms: _274  and  _277
REMARK  114  A    between atoms: _277  and  _278
REMARK  115  A    between atoms: _278  and  _279
REMARK  116  A    between atoms: _279  and  _280
REMARK  117  A    between atoms: _289  and  _291
REMARK  118  A    between atoms: _291  and  _292
REMARK  119  A    between atoms: _291  and  _294
REMARK  120  A    between atoms: _294  and  _295
REMARK  121  A    between atoms: _300  and  _301
REMARK  122  A    between atoms: _303  and  _305
REMARK  123  A    between atoms: _305  and  _306
REMARK  124  A    between atoms: _308  and  _310
REMARK  125  A    between atoms: _310  and  _311
REMARK  126  A    between atoms: _310  and  _313
REMARK  127  A    between atoms: _313  and  _314
REMARK  128  A    between atoms: _319  and  _320
REMARK  129  A    between atoms: _322  and  _324
REMARK  130  A    between atoms: _324  and  _325
REMARK  131  A    between atoms: _328  and  _330
REMARK  132  A    between atoms: _330  and  _331
REMARK  133  A    between atoms: _330  and  _333
REMARK  134  A    between atoms: _333  and  _334
REMARK  135  A    between atoms: _337  and  _339
REMARK  136  A    between atoms: _339  and  _340
REMARK  137  A    between atoms: _339  and  _342
REMARK  138  A    between atoms: _342  and  _343
REMARK  139  A    between atoms: _346  and  _348
REMARK  140  A    between atoms: _348  and  _349
REMARK  141  A    between atoms: _352  and  _354
REMARK  142  A    between atoms: _354  and  _355
REMARK  143  A    between atoms: _354  and  _357
REMARK  144  A    between atoms: _357  and  _358
REMARK  145  A    between atoms: _361  and  _363
REMARK  146  A    between atoms: _363  and  _364
REMARK  147  A    between atoms: _363  and  _366
REMARK  148  A    between atoms: _366  and  _367
REMARK  149  A    between atoms: _372  and  _374
REMARK  150  A    between atoms: _374  and  _375
REMARK  151  A    between atoms: _374  and  _377
REMARK  152  A    between atoms: _377  and  _378
REMARK  153  A    between atoms: _384  and  _386
REMARK  154  A    between atoms: _386  and  _387
REMARK  155  A    between atoms: _390  and  _392
REMARK  156  A    between atoms: _392  and  _393
REMARK  157  A    between atoms: _392  and  _395
REMARK  158  A    between atoms: _395  and  _396
REMARK  159  A    between atoms: _399  and  _401
REMARK  160  A    between atoms: _401  and  _402
REMARK  161  A    between atoms: _404  and  _406
REMARK  162  A    between atoms: _406  and  _407
REMARK  163  A    between atoms: _406  and  _409
REMARK  164  A    between atoms: _409  and  _410
REMARK  165  A    between atoms: _415  and  _417
REMARK  166  A    between atoms: _417  and  _418
REMARK  167  A    between atoms: _417  and  _420
REMARK  168  A    between atoms: _420  and  _421
REMARK  169  A    between atoms: _431  and  _433
REMARK  170  A    between atoms: _433  and  _434
REMARK  171  A    between atoms: _436  and  _438
REMARK  172  A    between atoms: _438  and  _439
REMARK  173  A    between atoms: _438  and  _441
REMARK  174  A    between atoms: _443  and  _445
REMARK  175  A    between atoms: _445  and  _446
REMARK  176  A    between atoms: _448  and  _450
REMARK  177  A    between atoms: _450  and  _451
REMARK  178  A    between atoms: _454  and  _456
REMARK  179  A    between atoms: _456  and  _457
REMARK  180  A    between atoms: _456  and  _459
REMARK  181  A    between atoms: _459  and  _460
REMARK  182  A    between atoms: _466  and  _468
REMARK  183  A    between atoms: _468  and  _469
REMARK  184  A    between atoms: _471  and  _473
REMARK  185  A    between atoms: _473  and  _474
REMARK  186  A    between atoms: _476  and  _478
REMARK  187  A    between atoms: _478  and  _479
REMARK  188  A    between atoms: _482  and  _484
REMARK  189  A    between atoms: _484  and  _485
REMARK  190  A    between atoms: _484  and  _487
REMARK  191  A    between atoms: _487  and  _488
REMARK  192  A    between atoms: _488  and  _489
REMARK  193  A    between atoms: _489  and  _490
REMARK  194  A    between atoms: _490  and  _491
REMARK  195  A    between atoms: _495  and  _497
REMARK  196  A    between atoms: _497  and  _498
REMARK  197  A    between atoms: _497  and  _500
REMARK  198  A    between atoms: _500  and  _501
REMARK  199  A    between atoms: _506  and  _507
REMARK  200  A    between atoms: _509  and  _511
REMARK  201  A    between atoms: _511  and  _512
REMARK  202  A    between atoms: _511  and  _514
REMARK  203  A    between atoms: _514  and  _515
REMARK  204  A    between atoms: _521  and  _523
REMARK  205  A    between atoms: _523  and  _524
REMARK  206  A    between atoms: _523  and  _526
REMARK  207  A    between atoms: _526  and  _527
REMARK  208  A    between atoms: _530  and  _532
REMARK  209  A    between atoms: _532  and  _533
REMARK  210  A    between atoms: _532  and  _535
REMARK  211  A    between atoms: _535  and  _536
REMARK  212  A    between atoms: _542  and  _544
REMARK  213  A    between atoms: _544  and  _545
REMARK  214  A    between atoms: _547  and  _549
REMARK  215  A    between atoms: _549  and  _550
REMARK  216  A    between atoms: _549  and  _552
REMARK  217  A    between atoms: _552  and  _553
REMARK  218  A    between atoms: _556  and  _558
REMARK  219  A    between atoms: _558  and  _559
REMARK  220  A    between atoms: _558  and  _561
REMARK  221  A    between atoms: _561  and  _562
REMARK                            x       y       z     vdW  Elec       q    Type
REMARK                         _______ _______ _______ _____ _____    ______ ____
ROOT
ATOM      1  O   HOH     1      28.266  -0.172  16.101  0.00  0.00    +0.000 OA
ENDROOT
TORSDOF 0
REMARK  Name = ../refined-set-2016/4b1j/4b1j_pocket.pdb
REMARK  221 active torsions:
REMARK  status: ('A' for Active; 'I' for Inactive)
REMARK    1  A    between atoms: _1  and  _3
REMARK    2  A    between atoms: _3  and  _4
REMARK    3  A    between atoms: _3  and  _6
REMARK    4  A    between atoms: _6  and  _7
REMARK    5  A    between atoms: _7  and  _8
REMARK    6  A    between atoms: _11  and  _13
REMARK    7  A    between atoms: _13  and  _14
REMARK    8  A    between atoms: _16  and  _18
REMARK    9  A    between atoms: _18  and  _19
REMARK   10  A    between atoms: _18  and  _21
REMARK   11  A    between atoms: _21  and  _22
REMARK   12  A    between atoms: _25  and  _27
REMARK   13  A    between atoms: _27  and  _28
REMARK   14  A    between atoms: _27  and  _30
REMARK   15  A    between atoms: _30  and  _31
REMARK   16  A    between atoms: _34  and  _36
REMARK   17  A    between atoms: _36  and  _37
REMARK   18  A    between atoms: _36  and  _39
REMARK   19  A    between atoms: _39  and  _40
REMARK   20  A    between atoms: _40  and  _41
REMARK   21  A    between atoms: _44  and  _46
REMARK   22  A    between atoms: _46  and  _47
REMARK   23  A    between atoms: _46  and  _49
REMARK   24  A    between atoms: _49  and  _50
REMARK   25  A    between atoms: _50  and  _51
REMARK   26  A    between atoms: _54  and  _56
REMARK   27  A    between atoms: _56  and  _57
REMARK   28  A    between atoms: _56  and  _59
REMARK   29  A    between atoms: _59  and  _60
REMARK   30  A    between atoms: _65  and  _67
REMARK   31  A    between atoms: _67  and  _68
REMARK   32  A    between atoms: _67  and  _70
REMARK   33  A    between atoms: _73  and  _75
REMARK   34  A    between atoms: _75  and  _76
REMARK   35  A    between atoms: _75  and  _78
REMARK   36  A    between atoms: _78  and  _79
REMARK   37  A    between atoms: _82  and  _84
REMARK   38  A    between atoms: _84  and  _85
REMARK   39  A    between atoms: _84  and  _87
REMARK   40  A    between atoms: _87  and  _88
REMARK   41  A    between atoms: _94  and  _96
REMARK   42  A    between atoms: _96  and  _97
REMARK   43  A    between atoms: _100  and  _102
REMARK   44  A    between atoms: _102  and  _103
REMARK   45  A    between atoms: _102  and  _105
REMARK   46  A    between atoms: _105  and  _106
REMARK   47  A    between atoms: _111  and  _113
REMARK   48  A    between atoms: _113  and  _114
REMARK   49  A    between atoms: _113  and  _116
REMARK   50  A    between atoms: _116  and  _117
REMARK   51  A    between atoms: _117  and  _118
REMARK   52  A    between atoms: _118  and  _119
REMARK   53  A    between atoms: _128  and  _130
REMARK   54  A    between atoms: _130  and  _131
REMARK   55  A    between atoms: _130  and  _133
REMARK   56  A    between atoms: _133  and  _134
REMARK   57  A    between atoms: _140  and  _142
REMARK   58  A    between atoms: _142  and  _143
REMARK   59  A    between atoms: _142  and  _145
REMARK   60  A    between atoms: _148  and  _150
REMARK   61  A    between atoms: _150  and  _151
REMARK   62  A    between atoms: _153  and  _155
REMARK   63  A    between atoms: _155  and  _156
REMARK   64  A    between atoms: _158  and  _160
REMARK   65  A    between atoms: _160  and  _161
REMARK   66  A    between atoms: _163  and  _165
REMARK   67  A    between atoms: _165  and  _166
REMARK   68  A    between atoms: _165  and  _168
REMARK   69  A    between atoms: _171  and  _173
REMARK   70  A    between atoms: _173  and  _174
REMARK   71  A    between atoms: _176  and  _178
REMARK   72  A    between atoms: _178  and  _179
REMARK   73  A    between atoms: _178  and  _181
REMARK   74  A    between atoms: _181  and  _182
REMARK   75  A    between atoms: _185  and  _187
REMARK   76  A    between atoms: _187  and  _188
REMARK   77  A    between atoms: _187  and  _190
REMARK   78  A    between atoms: _193  and  _195
REMARK   79  A    between atoms: _195  and  _196
REMARK   80  A    between atoms: _195  and  _198
REMARK   81  A    between atoms: _198  and  _199
REMARK   82  A    between atoms: _199  and  _200
REMARK   83  A    between atoms: _205  and  _207
REMARK   84  A    between atoms: _207  and  _208
REMARK   85  A    between atoms: _207  and  _210
REMARK   86  A    between atoms: _210  and  _211
REMARK   87  A    between atoms: _211  and  _212
REMARK   88  A    between atoms: _215  and  _217
REMARK   89  A    between atoms: _217  and  _218
REMARK   90  A    between atoms: _217  and  _220
REMARK   91  A    between atoms: _220  and  _221
REMARK   92  A    between atoms: _221  and  _222
REMARK   93  A    between atoms: _225  and  _227
REMARK   94  A    between atoms: _227  and  _228
REMARK   95  A    between atoms: _227  and  _230
REMARK   96  A    between atoms: _230  and  _231
REMARK   97  A    between atoms: _234  and  _236
REMARK   98  A    between atoms: _236  and  _237
REMARK   99  A    between atoms: _236  and  _239
REMARK  100  A    between atoms: _239  and  _240
REMARK  101  A    between atoms: _240  and  _241
REMARK  102  A    between atoms: _241  and  _242
REMARK  103  A    between atoms: _251  and  _253
REMARK  104  A    between atoms: _253  and  _254
REMARK  105  A    between atoms: _253  and  _256
REMARK  106  A    between atoms: _256  and  _257
REMARK  107  A    between atoms: _263  and  _265
REMARK  108  A    between atoms: _265  and  _266
REMARK  109  A    between atoms: _265  and  _268
REMARK  110  A    between atoms: _268  and  _269
REMARK  111  A    between atoms: _272  and  _274
REMARK  112  A    between atoms: _274  and  _275
REMARK  113  A    between atoms: _274  and  _277
REMARK  114  A    between atoms: _277  and  _278
REMARK  115  A    between atoms: _278  and  _279
REMARK  116  A    between atoms: _279  and  _280
REMARK  117  A    between atoms: _289  and  _291
REMARK  118  A    between atoms: _291  and  _292
REMARK  119  A    between atoms: _291  and  _294
REMARK  120  A    between atoms: _294  and  _295
REMARK  121  A    between atoms: _300  and  _301
REMARK  122  A    between atoms: _303  and  _305
REMARK  123  A    between atoms: _305  and  _306
REMARK  124  A    between atoms: _308  and  _310
REMARK  125  A    between atoms: _310  and  _311
REMARK  126  A    between atoms: _310  and  _313
REMARK  127  A    between atoms: _313  and  _314
REMARK  128  A    between atoms: _319  and  _320
REMARK  129  A    between atoms: _322  and  _324
REMARK  130  A    between atoms: _324  and  _325
REMARK  131  A    between atoms: _328  and  _330
REMARK  132  A    between atoms: _330  and  _331
REMARK  133  A    between atoms: _330  and  _333
REMARK  134  A    between atoms: _333  and  _334
REMARK  135  A    between atoms: _337  and  _339
REMARK  136  A    between atoms: _339  and  _340
REMARK  137  A    between atoms: _339  and  _342
REMARK  138  A    between atoms: _342  and  _343
REMARK  139  A    between atoms: _346  and  _348
REMARK  140  A    between atoms: _348  and  _349
REMARK  141  A    between atoms: _352  and  _354
REMARK  142  A    between atoms: _354  and  _355
REMARK  143  A    between atoms: _354  and  _357
REMARK  144  A    between atoms: _357  and  _358
REMARK  145  A    between atoms: _361  and  _363
REMARK  146  A    between atoms: _363  and  _364
REMARK  147  A    between atoms: _363  and  _366
REMARK  148  A    between atoms: _366  and  _367
REMARK  149  A    between atoms: _372  and  _374
REMARK  150  A    between atoms: _374  and  _375
REMARK  151  A    between atoms: _374  and  _377
REMARK  152  A    between atoms: _377  and  _378
REMARK  153  A    between atoms: _384  and  _386
REMARK  154  A    between atoms: _386  and  _387
REMARK  155  A    between atoms: _390  and  _392
REMARK  156  A    between atoms: _392  and  _393
REMARK  157  A    between atoms: _392  and  _395
REMARK  158  A    between atoms: _395  and  _396
REMARK  159  A    between atoms: _399  and  _401
REMARK  160  A    between atoms: _401  and  _402
REMARK  161  A    between atoms: _404  and  _406
REMARK  162  A    between atoms: _406  and  _407
REMARK  163  A    between atoms: _406  and  _409
REMARK  164  A    between atoms: _409  and  _410
REMARK  165  A    between atoms: _415  and  _417
REMARK  166  A    between atoms: _417  and  _418
REMARK  167  A    between atoms: _417  and  _420
REMARK  168  A    between atoms: _420  and  _421
REMARK  169  A    between atoms: _431  and  _433
REMARK  170  A    between atoms: _433  and  _434
REMARK  171  A    between atoms: _436  and  _438
REMARK  172  A    between atoms: _438  and  _439
REMARK  173  A    between atoms: _438  and  _441
REMARK  174  A    between atoms: _443  and  _445
REMARK  175  A    between atoms: _445  and  _446
REMARK  176  A    between atoms: _448  and  _450
REMARK  177  A    between atoms: _450  and  _451
REMARK  178  A    between atoms: _454  and  _456
REMARK  179  A    between atoms: _456  and  _457
REMARK  180  A    between atoms: _456  and  _459
REMARK  181  A    between atoms: _459  and  _460
REMARK  182  A    between atoms: _466  and  _468
REMARK  183  A    between atoms: _468  and  _469
REMARK  184  A    between atoms: _471  and  _473
REMARK  185  A    between atoms: _473  and  _474
REMARK  186  A    between atoms: _476  and  _478
REMARK  187  A    between atoms: _478  and  _479
REMARK  188  A    between atoms: _482  and  _484
REMARK  189  A    between atoms: _484  and  _485
REMARK  190  A    between atoms: _484  and  _487
REMARK  191  A    between atoms: _487  and  _488
REMARK  192  A    between atoms: _488  and  _489
REMARK  193  A    between atoms: _489  and  _490
REMARK  194  A    between atoms: _490  and  _491
REMARK  195  A    between atoms: _495  and  _497
REMARK  196  A    between atoms: _497  and  _498
REMARK  197  A    between atoms: _497  and  _500
REMARK  198  A    between atoms: _500  and  _501
REMARK  199  A    between atoms: _506  and  _507
REMARK  200  A    between atoms: _509  and  _511
REMARK  201  A    between atoms: _511  and  _512
REMARK  202  A    between atoms: _511  and  _514
REMARK  203  A    between atoms: _514  and  _515
REMARK  204  A    between atoms: _521  and  _523
REMARK  205  A    between atoms: _523  and  _524
REMARK  206  A    between atoms: _523  and  _526
REMARK  207  A    between atoms: _526  and  _527
REMARK  208  A    between atoms: _530  and  _532
REMARK  209  A    between atoms: _532  and  _533
REMARK  210  A    between atoms: _532  and  _535
REMARK  211  A    between atoms: _535  and  _536
REMARK  212  A    between atoms: _542  and  _544
REMARK  213  A    between atoms: _544  and  _545
REMARK  214  A    between atoms: _547  and  _549
REMARK  215  A    between atoms: _549  and  _550
REMARK  216  A    between atoms: _549  and  _552
REMARK  217  A    between atoms: _552  and  _553
REMARK  218  A    between atoms: _556  and  _558
REMARK  219  A    between atoms: _558  and  _559
REMARK  220  A    between atoms: _558  and  _561
REMARK  221  A    between atoms: _561  and  _562
REMARK                            x       y       z     vdW  Elec       q    Type
REMARK                         _______ _______ _______ _____ _____    ______ ____
ROOT
ATOM      1  O   HOH     1      32.342  -5.158  11.495  0.00  0.00    +0.000 OA
ENDROOT
TORSDOF 0
REMARK  Name = ../refined-set-2016/4b1j/4b1j_pocket.pdb
REMARK  221 active torsions:
REMARK  status: ('A' for Active; 'I' for Inactive)
REMARK    1  A    between atoms: _1  and  _3
REMARK    2  A    between atoms: _3  and  _4
REMARK    3  A    between atoms: _3  and  _6
REMARK    4  A    between atoms: _6  and  _7
REMARK    5  A    between atoms: _7  and  _8
REMARK    6  A    between atoms: _11  and  _13
REMARK    7  A    between atoms: _13  and  _14
REMARK    8  A    between atoms: _16  and  _18
REMARK    9  A    between atoms: _18  and  _19
REMARK   10  A    between atoms: _18  and  _21
REMARK   11  A    between atoms: _21  and  _22
REMARK   12  A    between atoms: _25  and  _27
REMARK   13  A    between atoms: _27  and  _28
REMARK   14  A    between atoms: _27  and  _30
REMARK   15  A    between atoms: _30  and  _31
REMARK   16  A    between atoms: _34  and  _36
REMARK   17  A    between atoms: _36  and  _37
REMARK   18  A    between atoms: _36  and  _39
REMARK   19  A    between atoms: _39  and  _40
REMARK   20  A    between atoms: _40  and  _41
REMARK   21  A    between atoms: _44  and  _46
REMARK   22  A    between atoms: _46  and  _47
REMARK   23  A    between atoms: _46  and  _49
REMARK   24  A    between atoms: _49  and  _50
REMARK   25  A    between atoms: _50  and  _51
REMARK   26  A    between atoms: _54  and  _56
REMARK   27  A    between atoms: _56  and  _57
REMARK   28  A    between atoms: _56  and  _59
REMARK   29  A    between atoms: _59  and  _60
REMARK   30  A    between atoms: _65  and  _67
REMARK   31  A    between atoms: _67  and  _68
REMARK   32  A    between atoms: _67  and  _70
REMARK   33  A    between atoms: _73  and  _75
REMARK   34  A    between atoms: _75  and  _76
REMARK   35  A    between atoms: _75  and  _78
REMARK   36  A    between atoms: _78  and  _79
REMARK   37  A    between atoms: _82  and  _84
REMARK   38  A    between atoms: _84  and  _85
REMARK   39  A    between atoms: _84  and  _87
REMARK   40  A    between atoms: _87  and  _88
REMARK   41  A    between atoms: _94  and  _96
REMARK   42  A    between atoms: _96  and  _97
REMARK   43  A    between atoms: _100  and  _102
REMARK   44  A    between atoms: _102  and  _103
REMARK   45  A    between atoms: _102  and  _105
REMARK   46  A    between atoms: _105  and  _106
REMARK   47  A    between atoms: _111  and  _113
REMARK   48  A    between atoms: _113  and  _114
REMARK   49  A    between atoms: _113  and  _116
REMARK   50  A    between atoms: _116  and  _117
REMARK   51  A    between atoms: _117  and  _118
REMARK   52  A    between atoms: _118  and  _119
REMARK   53  A    between atoms: _128  and  _130
REMARK   54  A    between atoms: _130  and  _131
REMARK   55  A    between atoms: _130  and  _133
REMARK   56  A    between atoms: _133  and  _134
REMARK   57  A    between atoms: _140  and  _142
REMARK   58  A    between atoms: _142  and  _143
REMARK   59  A    between atoms: _142  and  _145
REMARK   60  A    between atoms: _148  and  _150
REMARK   61  A    between atoms: _150  and  _151
REMARK   62  A    between atoms: _153  and  _155
REMARK   63  A    between atoms: _155  and  _156
REMARK   64  A    between atoms: _158  and  _160
REMARK   65  A    between atoms: _160  and  _161
REMARK   66  A    between atoms: _163  and  _165
REMARK   67  A    between atoms: _165  and  _166
REMARK   68  A    between atoms: _165  and  _168
REMARK   69  A    between atoms: _171  and  _173
REMARK   70  A    between atoms: _173  and  _174
REMARK   71  A    between atoms: _176  and  _178
REMARK   72  A    between atoms: _178  and  _179
REMARK   73  A    between atoms: _178  and  _181
REMARK   74  A    between atoms: _181  and  _182
REMARK   75  A    between atoms: _185  and  _187
REMARK   76  A    between atoms: _187  and  _188
REMARK   77  A    between atoms: _187  and  _190
REMARK   78  A    between atoms: _193  and  _195
REMARK   79  A    between atoms: _195  and  _196
REMARK   80  A    between atoms: _195  and  _198
REMARK   81  A    between atoms: _198  and  _199
REMARK   82  A    between atoms: _199  and  _200
REMARK   83  A    between atoms: _205  and  _207
REMARK   84  A    between atoms: _207  and  _208
REMARK   85  A    between atoms: _207  and  _210
REMARK   86  A    between atoms: _210  and  _211
REMARK   87  A    between atoms: _211  and  _212
REMARK   88  A    between atoms: _215  and  _217
REMARK   89  A    between atoms: _217  and  _218
REMARK   90  A    between atoms: _217  and  _220
REMARK   91  A    between atoms: _220  and  _221
REMARK   92  A    between atoms: _221  and  _222
REMARK   93  A    between atoms: _225  and  _227
REMARK   94  A    between atoms: _227  and  _228
REMARK   95  A    between atoms: _227  and  _230
REMARK   96  A    between atoms: _230  and  _231
REMARK   97  A    between atoms: _234  and  _236
REMARK   98  A    between atoms: _236  and  _237
REMARK   99  A    between atoms: _236  and  _239
REMARK  100  A    between atoms: _239  and  _240
REMARK  101  A    between atoms: _240  and  _241
REMARK  102  A    between atoms: _241  and  _242
REMARK  103  A    between atoms: _251  and  _253
REMARK  104  A    between atoms: _253  and  _254
REMARK  105  A    between atoms: _253  and  _256
REMARK  106  A    between atoms: _256  and  _257
REMARK  107  A    between atoms: _263  and  _265
REMARK  108  A    between atoms: _265  and  _266
REMARK  109  A    between atoms: _265  and  _268
REMARK  110  A    between atoms: _268  and  _269
REMARK  111  A    between atoms: _272  and  _274
REMARK  112  A    between atoms: _274  and  _275
REMARK  113  A    between atoms: _274  and  _277
REMARK  114  A    between atoms: _277  and  _278
REMARK  115  A    between atoms: _278  and  _279
REMARK  116  A    between atoms: _279  and  _280
REMARK  117  A    between atoms: _289  and  _291
REMARK  118  A    between atoms: _291  and  _292
REMARK  119  A    between atoms: _291  and  _294
REMARK  120  A    between atoms: _294  and  _295
REMARK  121  A    between atoms: _300  and  _301
REMARK  122  A    between atoms: _303  and  _305
REMARK  123  A    between atoms: _305  and  _306
REMARK  124  A    between atoms: _308  and  _310
REMARK  125  A    between atoms: _310  and  _311
REMARK  126  A    between atoms: _310  and  _313
REMARK  127  A    between atoms: _313  and  _314
REMARK  128  A    between atoms: _319  and  _320
REMARK  129  A    between atoms: _322  and  _324
REMARK  130  A    between atoms: _324  and  _325
REMARK  131  A    between atoms: _328  and  _330
REMARK  132  A    between atoms: _330  and  _331
REMARK  133  A    between atoms: _330  and  _333
REMARK  134  A    between atoms: _333  and  _334
REMARK  135  A    between atoms: _337  and  _339
REMARK  136  A    between atoms: _339  and  _340
REMARK  137  A    between atoms: _339  and  _342
REMARK  138  A    between atoms: _342  and  _343
REMARK  139  A    between atoms: _346  and  _348
REMARK  140  A    between atoms: _348  and  _349
REMARK  141  A    between atoms: _352  and  _354
REMARK  142  A    between atoms: _354  and  _355
REMARK  143  A    between atoms: _354  and  _357
REMARK  144  A    between atoms: _357  and  _358
REMARK  145  A    between atoms: _361  and  _363
REMARK  146  A    between atoms: _363  and  _364
REMARK  147  A    between atoms: _363  and  _366
REMARK  148  A    between atoms: _366  and  _367
REMARK  149  A    between atoms: _372  and  _374
REMARK  150  A    between atoms: _374  and  _375
REMARK  151  A    between atoms: _374  and  _377
REMARK  152  A    between atoms: _377  and  _378
REMARK  153  A    between atoms: _384  and  _386
REMARK  154  A    between atoms: _386  and  _387
REMARK  155  A    between atoms: _390  and  _392
REMARK  156  A    between atoms: _392  and  _393
REMARK  157  A    between atoms: _392  and  _395
REMARK  158  A    between atoms: _395  and  _396
REMARK  159  A    between atoms: _399  and  _401
REMARK  160  A    between atoms: _401  and  _402
REMARK  161  A    between atoms: _404  and  _406
REMARK  162  A    between atoms: _406  and  _407
REMARK  163  A    between atoms: _406  and  _409
REMARK  164  A    between atoms: _409  and  _410
REMARK  165  A    between atoms: _415  and  _417
REMARK  166  A    between atoms: _417  and  _418
REMARK  167  A    between atoms: _417  and  _420
REMARK  168  A    between atoms: _420  and  _421
REMARK  169  A    between atoms: _431  and  _433
REMARK  170  A    between atoms: _433  and  _434
REMARK  171  A    between atoms: _436  and  _438
REMARK  172  A    between atoms: _438  and  _439
REMARK  173  A    between atoms: _438  and  _441
REMARK  174  A    between atoms: _443  and  _445
REMARK  175  A    between atoms: _445  and  _446
REMARK  176  A    between atoms: _448  and  _450
REMARK  177  A    between atoms: _450  and  _451
REMARK  178  A    between atoms: _454  and  _456
REMARK  179  A    between atoms: _456  and  _457
REMARK  180  A    between atoms: _456  and  _459
REMARK  181  A    between atoms: _459  and  _460
REMARK  182  A    between atoms: _466  and  _468
REMARK  183  A    between atoms: _468  and  _469
REMARK  184  A    between atoms: _471  and  _473
REMARK  185  A    between atoms: _473  and  _474
REMARK  186  A    between atoms: _476  and  _478
REMARK  187  A    between atoms: _478  and  _479
REMARK  188  A    between atoms: _482  and  _484
REMARK  189  A    between atoms: _484  and  _485
REMARK  190  A    between atoms: _484  and  _487
REMARK  191  A    between atoms: _487  and  _488
REMARK  192  A    between atoms: _488  and  _489
REMARK  193  A    between atoms: _489  and  _490
REMARK  194  A    between atoms: _490  and  _491
REMARK  195  A    between atoms: _495  and  _497
REMARK  196  A    between atoms: _497  and  _498
REMARK  197  A    between atoms: _497  and  _500
REMARK  198  A    between atoms: _500  and  _501
REMARK  199  A    between atoms: _506  and  _507
REMARK  200  A    between atoms: _509  and  _511
REMARK  201  A    between atoms: _511  and  _512
REMARK  202  A    between atoms: _511  and  _514
REMARK  203  A    between atoms: _514  and  _515
REMARK  204  A    between atoms: _521  and  _523
REMARK  205  A    between atoms: _523  and  _524
REMARK  206  A    between atoms: _523  and  _526
REMARK  207  A    between atoms: _526  and  _527
REMARK  208  A    between atoms: _530  and  _532
REMARK  209  A    between atoms: _532  and  _533
REMARK  210  A    between atoms: _532  and  _535
REMARK  211  A    between atoms: _535  and  _536
REMARK  212  A    between atoms: _542  and  _544
REMARK  213  A    between atoms: _544  and  _545
REMARK  214  A    between atoms: _547  and  _549
REMARK  215  A    between atoms: _549  and  _550
REMARK  216  A    between atoms: _549  and  _552
REMARK  217  A    between atoms: _552  and  _553
REMARK  218  A    between atoms: _556  and  _558
REMARK  219  A    between atoms: _558  and  _559
REMARK  220  A    between atoms: _558  and  _561
REMARK  221  A    between atoms: _561  and  _562
REMARK                            x       y       z     vdW  Elec       q    Type
REMARK                         _______ _______ _______ _____ _____    ______ ____
ROOT
ATOM      1  O   HOH     1      35.487   3.144   8.144  0.00  0.00    +0.000 OA
ENDROOT
TORSDOF 0
REMARK  Name = ../refined-set-2016/4b1j/4b1j_pocket.pdb
REMARK  221 active torsions:
REMARK  status: ('A' for Active; 'I' for Inactive)
REMARK    1  A    between atoms: _1  and  _3
REMARK    2  A    between atoms: _3  and  _4
REMARK    3  A    between atoms: _3  and  _6
REMARK    4  A    between atoms: _6  and  _7
REMARK    5  A    between atoms: _7  and  _8
REMARK    6  A    between atoms: _11  and  _13
REMARK    7  A    between atoms: _13  and  _14
REMARK    8  A    between atoms: _16  and  _18
REMARK    9  A    between atoms: _18  and  _19
REMARK   10  A    between atoms: _18  and  _21
REMARK   11  A    between atoms: _21  and  _22
REMARK   12  A    between atoms: _25  and  _27
REMARK   13  A    between atoms: _27  and  _28
REMARK   14  A    between atoms: _27  and  _30
REMARK   15  A    between atoms: _30  and  _31
REMARK   16  A    between atoms: _34  and  _36
REMARK   17  A    between atoms: _36  and  _37
REMARK   18  A    between atoms: _36  and  _39
REMARK   19  A    between atoms: _39  and  _40
REMARK   20  A    between atoms: _40  and  _41
REMARK   21  A    between atoms: _44  and  _46
REMARK   22  A    between atoms: _46  and  _47
REMARK   23  A    between atoms: _46  and  _49
REMARK   24  A    between atoms: _49  and  _50
REMARK   25  A    between atoms: _50  and  _51
REMARK   26  A    between atoms: _54  and  _56
REMARK   27  A    between atoms: _56  and  _57
REMARK   28  A    between atoms: _56  and  _59
REMARK   29  A    between atoms: _59  and  _60
REMARK   30  A    between atoms: _65  and  _67
REMARK   31  A    between atoms: _67  and  _68
REMARK   32  A    between atoms: _67  and  _70
REMARK   33  A    between atoms: _73  and  _75
REMARK   34  A    between atoms: _75  and  _76
REMARK   35  A    between atoms: _75  and  _78
REMARK   36  A    between atoms: _78  and  _79
REMARK   37  A    between atoms: _82  and  _84
REMARK   38  A    between atoms: _84  and  _85
REMARK   39  A    between atoms: _84  and  _87
REMARK   40  A    between atoms: _87  and  _88
REMARK   41  A    between atoms: _94  and  _96
REMARK   42  A    between atoms: _96  and  _97
REMARK   43  A    between atoms: _100  and  _102
REMARK   44  A    between atoms: _102  and  _103
REMARK   45  A    between atoms: _102  and  _105
REMARK   46  A    between atoms: _105  and  _106
REMARK   47  A    between atoms: _111  and  _113
REMARK   48  A    between atoms: _113  and  _114
REMARK   49  A    between atoms: _113  and  _116
REMARK   50  A    between atoms: _116  and  _117
REMARK   51  A    between atoms: _117  and  _118
REMARK   52  A    between atoms: _118  and  _119
REMARK   53  A    between atoms: _128  and  _130
REMARK   54  A    between atoms: _130  and  _131
REMARK   55  A    between atoms: _130  and  _133
REMARK   56  A    between atoms: _133  and  _134
REMARK   57  A    between atoms: _140  and  _142
REMARK   58  A    between atoms: _142  and  _143
REMARK   59  A    between atoms: _142  and  _145
REMARK   60  A    between atoms: _148  and  _150
REMARK   61  A    between atoms: _150  and  _151
REMARK   62  A    between atoms: _153  and  _155
REMARK   63  A    between atoms: _155  and  _156
REMARK   64  A    between atoms: _158  and  _160
REMARK   65  A    between atoms: _160  and  _161
REMARK   66  A    between atoms: _163  and  _165
REMARK   67  A    between atoms: _165  and  _166
REMARK   68  A    between atoms: _165  and  _168
REMARK   69  A    between atoms: _171  and  _173
REMARK   70  A    between atoms: _173  and  _174
REMARK   71  A    between atoms: _176  and  _178
REMARK   72  A    between atoms: _178  and  _179
REMARK   73  A    between atoms: _178  and  _181
REMARK   74  A    between atoms: _181  and  _182
REMARK   75  A    between atoms: _185  and  _187
REMARK   76  A    between atoms: _187  and  _188
REMARK   77  A    between atoms: _187  and  _190
REMARK   78  A    between atoms: _193  and  _195
REMARK   79  A    between atoms: _195  and  _196
REMARK   80  A    between atoms: _195  and  _198
REMARK   81  A    between atoms: _198  and  _199
REMARK   82  A    between atoms: _199  and  _200
REMARK   83  A    between atoms: _205  and  _207
REMARK   84  A    between atoms: _207  and  _208
REMARK   85  A    between atoms: _207  and  _210
REMARK   86  A    between atoms: _210  and  _211
REMARK   87  A    between atoms: _211  and  _212
REMARK   88  A    between atoms: _215  and  _217
REMARK   89  A    between atoms: _217  and  _218
REMARK   90  A    between atoms: _217  and  _220
REMARK   91  A    between atoms: _220  and  _221
REMARK   92  A    between atoms: _221  and  _222
REMARK   93  A    between atoms: _225  and  _227
REMARK   94  A    between atoms: _227  and  _228
REMARK   95  A    between atoms: _227  and  _230
REMARK   96  A    between atoms: _230  and  _231
REMARK   97  A    between atoms: _234  and  _236
REMARK   98  A    between atoms: _236  and  _237
REMARK   99  A    between atoms: _236  and  _239
REMARK  100  A    between atoms: _239  and  _240
REMARK  101  A    between atoms: _240  and  _241
REMARK  102  A    between atoms: _241  and  _242
REMARK  103  A    between atoms: _251  and  _253
REMARK  104  A    between atoms: _253  and  _254
REMARK  105  A    between atoms: _253  and  _256
REMARK  106  A    between atoms: _256  and  _257
REMARK  107  A    between atoms: _263  and  _265
REMARK  108  A    between atoms: _265  and  _266
REMARK  109  A    between atoms: _265  and  _268
REMARK  110  A    between atoms: _268  and  _269
REMARK  111  A    between atoms: _272  and  _274
REMARK  112  A    between atoms: _274  and  _275
REMARK  113  A    between atoms: _274  and  _277
REMARK  114  A    between atoms: _277  and  _278
REMARK  115  A    between atoms: _278  and  _279
REMARK  116  A    between atoms: _279  and  _280
REMARK  117  A    between atoms: _289  and  _291
REMARK  118  A    between atoms: _291  and  _292
REMARK  119  A    between atoms: _291  and  _294
REMARK  120  A    between atoms: _294  and  _295
REMARK  121  A    between atoms: _300  and  _301
REMARK  122  A    between atoms: _303  and  _305
REMARK  123  A    between atoms: _305  and  _306
REMARK  124  A    between atoms: _308  and  _310
REMARK  125  A    between atoms: _310  and  _311
REMARK  126  A    between atoms: _310  and  _313
REMARK  127  A    between atoms: _313  and  _314
REMARK  128  A    between atoms: _319  and  _320
REMARK  129  A    between atoms: _322  and  _324
REMARK  130  A    between atoms: _324  and  _325
REMARK  131  A    between atoms: _328  and  _330
REMARK  132  A    between atoms: _330  and  _331
REMARK  133  A    between atoms: _330  and  _333
REMARK  134  A    between atoms: _333  and  _334
REMARK  135  A    between atoms: _337  and  _339
REMARK  136  A    between atoms: _339  and  _340
REMARK  137  A    between atoms: _339  and  _342
REMARK  138  A    between atoms: _342  and  _343
REMARK  139  A    between atoms: _346  and  _348
REMARK  140  A    between atoms: _348  and  _349
REMARK  141  A    between atoms: _352  and  _354
REMARK  142  A    between atoms: _354  and  _355
REMARK  143  A    between atoms: _354  and  _357
REMARK  144  A    between atoms: _357  and  _358
REMARK  145  A    between atoms: _361  and  _363
REMARK  146  A    between atoms: _363  and  _364
REMARK  147  A    between atoms: _363  and  _366
REMARK  148  A    between atoms: _366  and  _367
REMARK  149  A    between atoms: _372  and  _374
REMARK  150  A    between atoms: _374  and  _375
REMARK  151  A    between atoms: _374  and  _377
REMARK  152  A    between atoms: _377  and  _378
REMARK  153  A    between atoms: _384  and  _386
REMARK  154  A    between atoms: _386  and  _387
REMARK  155  A    between atoms: _390  and  _392
REMARK  156  A    between atoms: _392  and  _393
REMARK  157  A    between atoms: _392  and  _395
REMARK  158  A    between atoms: _395  and  _396
REMARK  159  A    between atoms: _399  and  _401
REMARK  160  A    between atoms: _401  and  _402
REMARK  161  A    between atoms: _404  and  _406
REMARK  162  A    between atoms: _406  and  _407
REMARK  163  A    between atoms: _406  and  _409
REMARK  164  A    between atoms: _409  and  _410
REMARK  165  A    between atoms: _415  and  _417
REMARK  166  A    between atoms: _417  and  _418
REMARK  167  A    between atoms: _417  and  _420
REMARK  168  A    between atoms: _420  and  _421
REMARK  169  A    between atoms: _431  and  _433
REMARK  170  A    between atoms: _433  and  _434
REMARK  171  A    between atoms: _436  and  _438
REMARK  172  A    between atoms: _438  and  _439
REMARK  173  A    between atoms: _438  and  _441
REMARK  174  A    between atoms: _443  and  _445
REMARK  175  A    between atoms: _445  and  _446
REMARK  176  A    between atoms: _448  and  _450
REMARK  177  A    between atoms: _450  and  _451
REMARK  178  A    between atoms: _454  and  _456
REMARK  179  A    between atoms: _456  and  _457
REMARK  180  A    between atoms: _456  and  _459
REMARK  181  A    between atoms: _459  and  _460
REMARK  182  A    between atoms: _466  and  _468
REMARK  183  A    between atoms: _468  and  _469
REMARK  184  A    between atoms: _471  and  _473
REMARK  185  A    between atoms: _473  and  _474
REMARK  186  A    between atoms: _476  and  _478
REMARK  187  A    between atoms: _478  and  _479
REMARK  188  A    between atoms: _482  and  _484
REMARK  189  A    between atoms: _484  and  _485
REMARK  190  A    between atoms: _484  and  _487
REMARK  191  A    between atoms: _487  and  _488
REMARK  192  A    between atoms: _488  and  _489
REMARK  193  A    between atoms: _489  and  _490
REMARK  194  A    between atoms: _490  and  _491
REMARK  195  A    between atoms: _495  and  _497
REMARK  196  A    between atoms: _497  and  _498
REMARK  197  A    between atoms: _497  and  _500
REMARK  198  A    between atoms: _500  and  _501
REMARK  199  A    between atoms: _506  and  _507
REMARK  200  A    between atoms: _509  and  _511
REMARK  201  A    between atoms: _511  and  _512
REMARK  202  A    between atoms: _511  and  _514
REMARK  203  A    between atoms: _514  and  _515
REMARK  204  A    between atoms: _521  and  _523
REMARK  205  A    between atoms: _523  and  _524
REMARK  206  A    between atoms: _523  and  _526
REMARK  207  A    between atoms: _526  and  _527
REMARK  208  A    between atoms: _530  and  _532
REMARK  209  A    between atoms: _532  and  _533
REMARK  210  A    between atoms: _532  and  _535
REMARK  211  A    between atoms: _535  and  _536
REMARK  212  A    between atoms: _542  and  _544
REMARK  213  A    between atoms: _544  and  _545
REMARK  214  A    between atoms: _547  and  _549
REMARK  215  A    between atoms: _549  and  _550
REMARK  216  A    between atoms: _549  and  _552
REMARK  217  A    between atoms: _552  and  _553
REMARK  218  A    between atoms: _556  and  _558
REMARK  219  A    between atoms: _558  and  _559
REMARK  220  A    between atoms: _558  and  _561
REMARK  221  A    between atoms: _561  and  _562
REMARK                            x       y       z     vdW  Elec       q    Type
REMARK                         _______ _______ _______ _____ _____    ______ ____
ROOT
ATOM      1  O   HOH     1      26.985  -7.280   0.452  0.00  0.00    +0.000 OA
ENDROOT
TORSDOF 0
REMARK  Name = ../refined-set-2016/4b1j/4b1j_pocket.pdb
REMARK  221 active torsions:
REMARK  status: ('A' for Active; 'I' for Inactive)
REMARK    1  A    between atoms: _1  and  _3
REMARK    2  A    between atoms: _3  and  _4
REMARK    3  A    between atoms: _3  and  _6
REMARK    4  A    between atoms: _6  and  _7
REMARK    5  A    between atoms: _7  and  _8
REMARK    6  A    between atoms: _11  and  _13
REMARK    7  A    between atoms: _13  and  _14
REMARK    8  A    between atoms: _16  and  _18
REMARK    9  A    between atoms: _18  and  _19
REMARK   10  A    between atoms: _18  and  _21
REMARK   11  A    between atoms: _21  and  _22
REMARK   12  A    between atoms: _25  and  _27
REMARK   13  A    between atoms: _27  and  _28
REMARK   14  A    between atoms: _27  and  _30
REMARK   15  A    between atoms: _30  and  _31
REMARK   16  A    between atoms: _34  and  _36
REMARK   17  A    between atoms: _36  and  _37
REMARK   18  A    between atoms: _36  and  _39
REMARK   19  A    between atoms: _39  and  _40
REMARK   20  A    between atoms: _40  and  _41
REMARK   21  A    between atoms: _44  and  _46
REMARK   22  A    between atoms: _46  and  _47
REMARK   23  A    between atoms: _46  and  _49
REMARK   24  A    between atoms: _49  and  _50
REMARK   25  A    between atoms: _50  and  _51
REMARK   26  A    between atoms: _54  and  _56
REMARK   27  A    between atoms: _56  and  _57
REMARK   28  A    between atoms: _56  and  _59
REMARK   29  A    between atoms: _59  and  _60
REMARK   30  A    between atoms: _65  and  _67
REMARK   31  A    between atoms: _67  and  _68
REMARK   32  A    between atoms: _67  and  _70
REMARK   33  A    between atoms: _73  and  _75
REMARK   34  A    between atoms: _75  and  _76
REMARK   35  A    between atoms: _75  and  _78
REMARK   36  A    between atoms: _78  and  _79
REMARK   37  A    between atoms: _82  and  _84
REMARK   38  A    between atoms: _84  and  _85
REMARK   39  A    between atoms: _84  and  _87
REMARK   40  A    between atoms: _87  and  _88
REMARK   41  A    between atoms: _94  and  _96
REMARK   42  A    between atoms: _96  and  _97
REMARK   43  A    between atoms: _100  and  _102
REMARK   44  A    between atoms: _102  and  _103
REMARK   45  A    between atoms: _102  and  _105
REMARK   46  A    between atoms: _105  and  _106
REMARK   47  A    between atoms: _111  and  _113
REMARK   48  A    between atoms: _113  and  _114
REMARK   49  A    between atoms: _113  and  _116
REMARK   50  A    between atoms: _116  and  _117
REMARK   51  A    between atoms: _117  and  _118
REMARK   52  A    between atoms: _118  and  _119
REMARK   53  A    between atoms: _128  and  _130
REMARK   54  A    between atoms: _130  and  _131
REMARK   55  A    between atoms: _130  and  _133
REMARK   56  A    between atoms: _133  and  _134
REMARK   57  A    between atoms: _140  and  _142
REMARK   58  A    between atoms: _142  and  _143
REMARK   59  A    between atoms: _142  and  _145
REMARK   60  A    between atoms: _148  and  _150
REMARK   61  A    between atoms: _150  and  _151
REMARK   62  A    between atoms: _153  and  _155
REMARK   63  A    between atoms: _155  and  _156
REMARK   64  A    between atoms: _158  and  _160
REMARK   65  A    between atoms: _160  and  _161
REMARK   66  A    between atoms: _163  and  _165
REMARK   67  A    between atoms: _165  and  _166
REMARK   68  A    between atoms: _165  and  _168
REMARK   69  A    between atoms: _171  and  _173
REMARK   70  A    between atoms: _173  and  _174
REMARK   71  A    between atoms: _176  and  _178
REMARK   72  A    between atoms: _178  and  _179
REMARK   73  A    between atoms: _178  and  _181
REMARK   74  A    between atoms: _181  and  _182
REMARK   75  A    between atoms: _185  and  _187
REMARK   76  A    between atoms: _187  and  _188
REMARK   77  A    between atoms: _187  and  _190
REMARK   78  A    between atoms: _193  and  _195
REMARK   79  A    between atoms: _195  and  _196
REMARK   80  A    between atoms: _195  and  _198
REMARK   81  A    between atoms: _198  and  _199
REMARK   82  A    between atoms: _199  and  _200
REMARK   83  A    between atoms: _205  and  _207
REMARK   84  A    between atoms: _207  and  _208
REMARK   85  A    between atoms: _207  and  _210
REMARK   86  A    between atoms: _210  and  _211
REMARK   87  A    between atoms: _211  and  _212
REMARK   88  A    between atoms: _215  and  _217
REMARK   89  A    between atoms: _217  and  _218
REMARK   90  A    between atoms: _217  and  _220
REMARK   91  A    between atoms: _220  and  _221
REMARK   92  A    between atoms: _221  and  _222
REMARK   93  A    between atoms: _225  and  _227
REMARK   94  A    between atoms: _227  and  _228
REMARK   95  A    between atoms: _227  and  _230
REMARK   96  A    between atoms: _230  and  _231
REMARK   97  A    between atoms: _234  and  _236
REMARK   98  A    between atoms: _236  and  _237
REMARK   99  A    between atoms: _236  and  _239
REMARK  100  A    between atoms: _239  and  _240
REMARK  101  A    between atoms: _240  and  _241
REMARK  102  A    between atoms: _241  and  _242
REMARK  103  A    between atoms: _251  and  _253
REMARK  104  A    between atoms: _253  and  _254
REMARK  105  A    between atoms: _253  and  _256
REMARK  106  A    between atoms: _256  and  _257
REMARK  107  A    between atoms: _263  and  _265
REMARK  108  A    between atoms: _265  and  _266
REMARK  109  A    between atoms: _265  and  _268
REMARK  110  A    between atoms: _268  and  _269
REMARK  111  A    between atoms: _272  and  _274
REMARK  112  A    between atoms: _274  and  _275
REMARK  113  A    between atoms: _274  and  _277
REMARK  114  A    between atoms: _277  and  _278
REMARK  115  A    between atoms: _278  and  _279
REMARK  116  A    between atoms: _279  and  _280
REMARK  117  A    between atoms: _289  and  _291
REMARK  118  A    between atoms: _291  and  _292
REMARK  119  A    between atoms: _291  and  _294
REMARK  120  A    between atoms: _294  and  _295
REMARK  121  A    between atoms: _300  and  _301
REMARK  122  A    between atoms: _303  and  _305
REMARK  123  A    between atoms: _305  and  _306
REMARK  124  A    between atoms: _308  and  _310
REMARK  125  A    between atoms: _310  and  _311
REMARK  126  A    between atoms: _310  and  _313
REMARK  127  A    between atoms: _313  and  _314
REMARK  128  A    between atoms: _319  and  _320
REMARK  129  A    between atoms: _322  and  _324
REMARK  130  A    between atoms: _324  and  _325
REMARK  131  A    between atoms: _328  and  _330
REMARK  132  A    between atoms: _330  and  _331
REMARK  133  A    between atoms: _330  and  _333
REMARK  134  A    between atoms: _333  and  _334
REMARK  135  A    between atoms: _337  and  _339
REMARK  136  A    between atoms: _339  and  _340
REMARK  137  A    between atoms: _339  and  _342
REMARK  138  A    between atoms: _342  and  _343
REMARK  139  A    between atoms: _346  and  _348
REMARK  140  A    between atoms: _348  and  _349
REMARK  141  A    between atoms: _352  and  _354
REMARK  142  A    between atoms: _354  and  _355
REMARK  143  A    between atoms: _354  and  _357
REMARK  144  A    between atoms: _357  and  _358
REMARK  145  A    between atoms: _361  and  _363
REMARK  146  A    between atoms: _363  and  _364
REMARK  147  A    between atoms: _363  and  _366
REMARK  148  A    between atoms: _366  and  _367
REMARK  149  A    between atoms: _372  and  _374
REMARK  150  A    between atoms: _374  and  _375
REMARK  151  A    between atoms: _374  and  _377
REMARK  152  A    between atoms: _377  and  _378
REMARK  153  A    between atoms: _384  and  _386
REMARK  154  A    between atoms: _386  and  _387
REMARK  155  A    between atoms: _390  and  _392
REMARK  156  A    between atoms: _392  and  _393
REMARK  157  A    between atoms: _392  and  _395
REMARK  158  A    between atoms: _395  and  _396
REMARK  159  A    between atoms: _399  and  _401
REMARK  160  A    between atoms: _401  and  _402
REMARK  161  A    between atoms: _404  and  _406
REMARK  162  A    between atoms: _406  and  _407
REMARK  163  A    between atoms: _406  and  _409
REMARK  164  A    between atoms: _409  and  _410
REMARK  165  A    between atoms: _415  and  _417
REMARK  166  A    between atoms: _417  and  _418
REMARK  167  A    between atoms: _417  and  _420
REMARK  168  A    between atoms: _420  and  _421
REMARK  169  A    between atoms: _431  and  _433
REMARK  170  A    between atoms: _433  and  _434
REMARK  171  A    between atoms: _436  and  _438
REMARK  172  A    between atoms: _438  and  _439
REMARK  173  A    between atoms: _438  and  _441
REMARK  174  A    between atoms: _443  and  _445
REMARK  175  A    between atoms: _445  and  _446
REMARK  176  A    between atoms: _448  and  _450
REMARK  177  A    between atoms: _450  and  _451
REMARK  178  A    between atoms: _454  and  _456
REMARK  179  A    between atoms: _456  and  _457
REMARK  180  A    between atoms: _456  and  _459
REMARK  181  A    between atoms: _459  and  _460
REMARK  182  A    between atoms: _466  and  _468
REMARK  183  A    between atoms: _468  and  _469
REMARK  184  A    between atoms: _471  and  _473
REMARK  185  A    between atoms: _473  and  _474
REMARK  186  A    between atoms: _476  and  _478
REMARK  187  A    between atoms: _478  and  _479
REMARK  188  A    between atoms: _482  and  _484
REMARK  189  A    between atoms: _484  and  _485
REMARK  190  A    between atoms: _484  and  _487
REMARK  191  A    between atoms: _487  and  _488
REMARK  192  A    between atoms: _488  and  _489
REMARK  193  A    between atoms: _489  and  _490
REMARK  194  A    between atoms: _490  and  _491
REMARK  195  A    between atoms: _495  and  _497
REMARK  196  A    between atoms: _497  and  _498
REMARK  197  A    between atoms: _497  and  _500
REMARK  198  A    between atoms: _500  and  _501
REMARK  199  A    between atoms: _506  and  _507
REMARK  200  A    between atoms: _509  and  _511
REMARK  201  A    between atoms: _511  and  _512
REMARK  202  A    between atoms: _511  and  _514
REMARK  203  A    between atoms: _514  and  _515
REMARK  204  A    between atoms: _521  and  _523
REMARK  205  A    between atoms: _523  and  _524
REMARK  206  A    between atoms: _523  and  _526
REMARK  207  A    between atoms: _526  and  _527
REMARK  208  A    between atoms: _530  and  _532
REMARK  209  A    between atoms: _532  and  _533
REMARK  210  A    between atoms: _532  and  _535
REMARK  211  A    between atoms: _535  and  _536
REMARK  212  A    between atoms: _542  and  _544
REMARK  213  A    between atoms: _544  and  _545
REMARK  214  A    between atoms: _547  and  _549
REMARK  215  A    between atoms: _549  and  _550
REMARK  216  A    between atoms: _549  and  _552
REMARK  217  A    between atoms: _552  and  _553
REMARK  218  A    between atoms: _556  and  _558
REMARK  219  A    between atoms: _558  and  _559
REMARK  220  A    between atoms: _558  and  _561
REMARK  221  A    between atoms: _561  and  _562
REMARK                            x       y       z     vdW  Elec       q    Type
REMARK                         _______ _______ _______ _____ _____    ______ ____
ROOT
ATOM      1  O   HOH     1      32.929  -7.789   1.807  0.00  0.00    +0.000 OA
ENDROOT
TORSDOF 0
REMARK  Name = ../refined-set-2016/4b1j/4b1j_pocket.pdb
REMARK  221 active torsions:
REMARK  status: ('A' for Active; 'I' for Inactive)
REMARK    1  A    between atoms: _1  and  _3
REMARK    2  A    between atoms: _3  and  _4
REMARK    3  A    between atoms: _3  and  _6
REMARK    4  A    between atoms: _6  and  _7
REMARK    5  A    between atoms: _7  and  _8
REMARK    6  A    between atoms: _11  and  _13
REMARK    7  A    between atoms: _13  and  _14
REMARK    8  A    between atoms: _16  and  _18
REMARK    9  A    between atoms: _18  and  _19
REMARK   10  A    between atoms: _18  and  _21
REMARK   11  A    between atoms: _21  and  _22
REMARK   12  A    between atoms: _25  and  _27
REMARK   13  A    between atoms: _27  and  _28
REMARK   14  A    between atoms: _27  and  _30
REMARK   15  A    between atoms: _30  and  _31
REMARK   16  A    between atoms: _34  and  _36
REMARK   17  A    between atoms: _36  and  _37
REMARK   18  A    between atoms: _36  and  _39
REMARK   19  A    between atoms: _39  and  _40
REMARK   20  A    between atoms: _40  and  _41
REMARK   21  A    between atoms: _44  and  _46
REMARK   22  A    between atoms: _46  and  _47
REMARK   23  A    between atoms: _46  and  _49
REMARK   24  A    between atoms: _49  and  _50
REMARK   25  A    between atoms: _50  and  _51
REMARK   26  A    between atoms: _54  and  _56
REMARK   27  A    between atoms: _56  and  _57
REMARK   28  A    between atoms: _56  and  _59
REMARK   29  A    between atoms: _59  and  _60
REMARK   30  A    between atoms: _65  and  _67
REMARK   31  A    between atoms: _67  and  _68
REMARK   32  A    between atoms: _67  and  _70
REMARK   33  A    between atoms: _73  and  _75
REMARK   34  A    between atoms: _75  and  _76
REMARK   35  A    between atoms: _75  and  _78
REMARK   36  A    between atoms: _78  and  _79
REMARK   37  A    between atoms: _82  and  _84
REMARK   38  A    between atoms: _84  and  _85
REMARK   39  A    between atoms: _84  and  _87
REMARK   40  A    between atoms: _87  and  _88
REMARK   41  A    between atoms: _94  and  _96
REMARK   42  A    between atoms: _96  and  _97
REMARK   43  A    between atoms: _100  and  _102
REMARK   44  A    between atoms: _102  and  _103
REMARK   45  A    between atoms: _102  and  _105
REMARK   46  A    between atoms: _105  and  _106
REMARK   47  A    between atoms: _111  and  _113
REMARK   48  A    between atoms: _113  and  _114
REMARK   49  A    between atoms: _113  and  _116
REMARK   50  A    between atoms: _116  and  _117
REMARK   51  A    between atoms: _117  and  _118
REMARK   52  A    between atoms: _118  and  _119
REMARK   53  A    between atoms: _128  and  _130
REMARK   54  A    between atoms: _130  and  _131
REMARK   55  A    between atoms: _130  and  _133
REMARK   56  A    between atoms: _133  and  _134
REMARK   57  A    between atoms: _140  and  _142
REMARK   58  A    between atoms: _142  and  _143
REMARK   59  A    between atoms: _142  and  _145
REMARK   60  A    between atoms: _148  and  _150
REMARK   61  A    between atoms: _150  and  _151
REMARK   62  A    between atoms: _153  and  _155
REMARK   63  A    between atoms: _155  and  _156
REMARK   64  A    between atoms: _158  and  _160
REMARK   65  A    between atoms: _160  and  _161
REMARK   66  A    between atoms: _163  and  _165
REMARK   67  A    between atoms: _165  and  _166
REMARK   68  A    between atoms: _165  and  _168
REMARK   69  A    between atoms: _171  and  _173
REMARK   70  A    between atoms: _173  and  _174
REMARK   71  A    between atoms: _176  and  _178
REMARK   72  A    between atoms: _178  and  _179
REMARK   73  A    between atoms: _178  and  _181
REMARK   74  A    between atoms: _181  and  _182
REMARK   75  A    between atoms: _185  and  _187
REMARK   76  A    between atoms: _187  and  _188
REMARK   77  A    between atoms: _187  and  _190
REMARK   78  A    between atoms: _193  and  _195
REMARK   79  A    between atoms: _195  and  _196
REMARK   80  A    between atoms: _195  and  _198
REMARK   81  A    between atoms: _198  and  _199
REMARK   82  A    between atoms: _199  and  _200
REMARK   83  A    between atoms: _205  and  _207
REMARK   84  A    between atoms: _207  and  _208
REMARK   85  A    between atoms: _207  and  _210
REMARK   86  A    between atoms: _210  and  _211
REMARK   87  A    between atoms: _211  and  _212
REMARK   88  A    between atoms: _215  and  _217
REMARK   89  A    between atoms: _217  and  _218
REMARK   90  A    between atoms: _217  and  _220
REMARK   91  A    between atoms: _220  and  _221
REMARK   92  A    between atoms: _221  and  _222
REMARK   93  A    between atoms: _225  and  _227
REMARK   94  A    between atoms: _227  and  _228
REMARK   95  A    between atoms: _227  and  _230
REMARK   96  A    between atoms: _230  and  _231
REMARK   97  A    between atoms: _234  and  _236
REMARK   98  A    between atoms: _236  and  _237
REMARK   99  A    between atoms: _236  and  _239
REMARK  100  A    between atoms: _239  and  _240
REMARK  101  A    between atoms: _240  and  _241
REMARK  102  A    between atoms: _241  and  _242
REMARK  103  A    between atoms: _251  and  _253
REMARK  104  A    between atoms: _253  and  _254
REMARK  105  A    between atoms: _253  and  _256
REMARK  106  A    between atoms: _256  and  _257
REMARK  107  A    between atoms: _263  and  _265
REMARK  108  A    between atoms: _265  and  _266
REMARK  109  A    between atoms: _265  and  _268
REMARK  110  A    between atoms: _268  and  _269
REMARK  111  A    between atoms: _272  and  _274
REMARK  112  A    between atoms: _274  and  _275
REMARK  113  A    between atoms: _274  and  _277
REMARK  114  A    between atoms: _277  and  _278
REMARK  115  A    between atoms: _278  and  _279
REMARK  116  A    between atoms: _279  and  _280
REMARK  117  A    between atoms: _289  and  _291
REMARK  118  A    between atoms: _291  and  _292
REMARK  119  A    between atoms: _291  and  _294
REMARK  120  A    between atoms: _294  and  _295
REMARK  121  A    between atoms: _300  and  _301
REMARK  122  A    between atoms: _303  and  _305
REMARK  123  A    between atoms: _305  and  _306
REMARK  124  A    between atoms: _308  and  _310
REMARK  125  A    between atoms: _310  and  _311
REMARK  126  A    between atoms: _310  and  _313
REMARK  127  A    between atoms: _313  and  _314
REMARK  128  A    between atoms: _319  and  _320
REMARK  129  A    between atoms: _322  and  _324
REMARK  130  A    between atoms: _324  and  _325
REMARK  131  A    between atoms: _328  and  _330
REMARK  132  A    between atoms: _330  and  _331
REMARK  133  A    between atoms: _330  and  _333
REMARK  134  A    between atoms: _333  and  _334
REMARK  135  A    between atoms: _337  and  _339
REMARK  136  A    between atoms: _339  and  _340
REMARK  137  A    between atoms: _339  and  _342
REMARK  138  A    between atoms: _342  and  _343
REMARK  139  A    between atoms: _346  and  _348
REMARK  140  A    between atoms: _348  and  _349
REMARK  141  A    between atoms: _352  and  _354
REMARK  142  A    between atoms: _354  and  _355
REMARK  143  A    between atoms: _354  and  _357
REMARK  144  A    between atoms: _357  and  _358
REMARK  145  A    between atoms: _361  and  _363
REMARK  146  A    between atoms: _363  and  _364
REMARK  147  A    between atoms: _363  and  _366
REMARK  148  A    between atoms: _366  and  _367
REMARK  149  A    between atoms: _372  and  _374
REMARK  150  A    between atoms: _374  and  _375
REMARK  151  A    between atoms: _374  and  _377
REMARK  152  A    between atoms: _377  and  _378
REMARK  153  A    between atoms: _384  and  _386
REMARK  154  A    between atoms: _386  and  _387
REMARK  155  A    between atoms: _390  and  _392
REMARK  156  A    between atoms: _392  and  _393
REMARK  157  A    between atoms: _392  and  _395
REMARK  158  A    between atoms: _395  and  _396
REMARK  159  A    between atoms: _399  and  _401
REMARK  160  A    between atoms: _401  and  _402
REMARK  161  A    between atoms: _404  and  _406
REMARK  162  A    between atoms: _406  and  _407
REMARK  163  A    between atoms: _406  and  _409
REMARK  164  A    between atoms: _409  and  _410
REMARK  165  A    between atoms: _415  and  _417
REMARK  166  A    between atoms: _417  and  _418
REMARK  167  A    between atoms: _417  and  _420
REMARK  168  A    between atoms: _420  and  _421
REMARK  169  A    between atoms: _431  and  _433
REMARK  170  A    between atoms: _433  and  _434
REMARK  171  A    between atoms: _436  and  _438
REMARK  172  A    between atoms: _438  and  _439
REMARK  173  A    between atoms: _438  and  _441
REMARK  174  A    between atoms: _443  and  _445
REMARK  175  A    between atoms: _445  and  _446
REMARK  176  A    between atoms: _448  and  _450
REMARK  177  A    between atoms: _450  and  _451
REMARK  178  A    between atoms: _454  and  _456
REMARK  179  A    between atoms: _456  and  _457
REMARK  180  A    between atoms: _456  and  _459
REMARK  181  A    between atoms: _459  and  _460
REMARK  182  A    between atoms: _466  and  _468
REMARK  183  A    between atoms: _468  and  _469
REMARK  184  A    between atoms: _471  and  _473
REMARK  185  A    between atoms: _473  and  _474
REMARK  186  A    between atoms: _476  and  _478
REMARK  187  A    between atoms: _478  and  _479
REMARK  188  A    between atoms: _482  and  _484
REMARK  189  A    between atoms: _484  and  _485
REMARK  190  A    between atoms: _484  and  _487
REMARK  191  A    between atoms: _487  and  _488
REMARK  192  A    between atoms: _488  and  _489
REMARK  193  A    between atoms: _489  and  _490
REMARK  194  A    between atoms: _490  and  _491
REMARK  195  A    between atoms: _495  and  _497
REMARK  196  A    between atoms: _497  and  _498
REMARK  197  A    between atoms: _497  and  _500
REMARK  198  A    between atoms: _500  and  _501
REMARK  199  A    between atoms: _506  and  _507
REMARK  200  A    between atoms: _509  and  _511
REMARK  201  A    between atoms: _511  and  _512
REMARK  202  A    between atoms: _511  and  _514
REMARK  203  A    between atoms: _514  and  _515
REMARK  204  A    between atoms: _521  and  _523
REMARK  205  A    between atoms: _523  and  _524
REMARK  206  A    between atoms: _523  and  _526
REMARK  207  A    between atoms: _526  and  _527
REMARK  208  A    between atoms: _530  and  _532
REMARK  209  A    between atoms: _532  and  _533
REMARK  210  A    between atoms: _532  and  _535
REMARK  211  A    between atoms: _535  and  _536
REMARK  212  A    between atoms: _542  and  _544
REMARK  213  A    between atoms: _544  and  _545
REMARK  214  A    between atoms: _547  and  _549
REMARK  215  A    between atoms: _549  and  _550
REMARK  216  A    between atoms: _549  and  _552
REMARK  217  A    between atoms: _552  and  _553
REMARK  218  A    between atoms: _556  and  _558
REMARK  219  A    between atoms: _558  and  _559
REMARK  220  A    between atoms: _558  and  _561
REMARK  221  A    between atoms: _561  and  _562
REMARK                            x       y       z     vdW  Elec       q    Type
REMARK                         _______ _______ _______ _____ _____    ______ ____
ROOT
ATOM      1  O   HOH     1      33.058  -4.873   1.706  0.00  0.00    +0.000 OA
ENDROOT
TORSDOF 0
REMARK  Name = ../refined-set-2016/4b1j/4b1j_pocket.pdb
REMARK  221 active torsions:
REMARK  status: ('A' for Active; 'I' for Inactive)
REMARK    1  A    between atoms: _1  and  _3
REMARK    2  A    between atoms: _3  and  _4
REMARK    3  A    between atoms: _3  and  _6
REMARK    4  A    between atoms: _6  and  _7
REMARK    5  A    between atoms: _7  and  _8
REMARK    6  A    between atoms: _11  and  _13
REMARK    7  A    between atoms: _13  and  _14
REMARK    8  A    between atoms: _16  and  _18
REMARK    9  A    between atoms: _18  and  _19
REMARK   10  A    between atoms: _18  and  _21
REMARK   11  A    between atoms: _21  and  _22
REMARK   12  A    between atoms: _25  and  _27
REMARK   13  A    between atoms: _27  and  _28
REMARK   14  A    between atoms: _27  and  _30
REMARK   15  A    between atoms: _30  and  _31
REMARK   16  A    between atoms: _34  and  _36
REMARK   17  A    between atoms: _36  and  _37
REMARK   18  A    between atoms: _36  and  _39
REMARK   19  A    between atoms: _39  and  _40
REMARK   20  A    between atoms: _40  and  _41
REMARK   21  A    between atoms: _44  and  _46
REMARK   22  A    between atoms: _46  and  _47
REMARK   23  A    between atoms: _46  and  _49
REMARK   24  A    between atoms: _49  and  _50
REMARK   25  A    between atoms: _50  and  _51
REMARK   26  A    between atoms: _54  and  _56
REMARK   27  A    between atoms: _56  and  _57
REMARK   28  A    between atoms: _56  and  _59
REMARK   29  A    between atoms: _59  and  _60
REMARK   30  A    between atoms: _65  and  _67
REMARK   31  A    between atoms: _67  and  _68
REMARK   32  A    between atoms: _67  and  _70
REMARK   33  A    between atoms: _73  and  _75
REMARK   34  A    between atoms: _75  and  _76
REMARK   35  A    between atoms: _75  and  _78
REMARK   36  A    between atoms: _78  and  _79
REMARK   37  A    between atoms: _82  and  _84
REMARK   38  A    between atoms: _84  and  _85
REMARK   39  A    between atoms: _84  and  _87
REMARK   40  A    between atoms: _87  and  _88
REMARK   41  A    between atoms: _94  and  _96
REMARK   42  A    between atoms: _96  and  _97
REMARK   43  A    between atoms: _100  and  _102
REMARK   44  A    between atoms: _102  and  _103
REMARK   45  A    between atoms: _102  and  _105
REMARK   46  A    between atoms: _105  and  _106
REMARK   47  A    between atoms: _111  and  _113
REMARK   48  A    between atoms: _113  and  _114
REMARK   49  A    between atoms: _113  and  _116
REMARK   50  A    between atoms: _116  and  _117
REMARK   51  A    between atoms: _117  and  _118
REMARK   52  A    between atoms: _118  and  _119
REMARK   53  A    between atoms: _128  and  _130
REMARK   54  A    between atoms: _130  and  _131
REMARK   55  A    between atoms: _130  and  _133
REMARK   56  A    between atoms: _133  and  _134
REMARK   57  A    between atoms: _140  and  _142
REMARK   58  A    between atoms: _142  and  _143
REMARK   59  A    between atoms: _142  and  _145
REMARK   60  A    between atoms: _148  and  _150
REMARK   61  A    between atoms: _150  and  _151
REMARK   62  A    between atoms: _153  and  _155
REMARK   63  A    between atoms: _155  and  _156
REMARK   64  A    between atoms: _158  and  _160
REMARK   65  A    between atoms: _160  and  _161
REMARK   66  A    between atoms: _163  and  _165
REMARK   67  A    between atoms: _165  and  _166
REMARK   68  A    between atoms: _165  and  _168
REMARK   69  A    between atoms: _171  and  _173
REMARK   70  A    between atoms: _173  and  _174
REMARK   71  A    between atoms: _176  and  _178
REMARK   72  A    between atoms: _178  and  _179
REMARK   73  A    between atoms: _178  and  _181
REMARK   74  A    between atoms: _181  and  _182
REMARK   75  A    between atoms: _185  and  _187
REMARK   76  A    between atoms: _187  and  _188
REMARK   77  A    between atoms: _187  and  _190
REMARK   78  A    between atoms: _193  and  _195
REMARK   79  A    between atoms: _195  and  _196
REMARK   80  A    between atoms: _195  and  _198
REMARK   81  A    between atoms: _198  and  _199
REMARK   82  A    between atoms: _199  and  _200
REMARK   83  A    between atoms: _205  and  _207
REMARK   84  A    between atoms: _207  and  _208
REMARK   85  A    between atoms: _207  and  _210
REMARK   86  A    between atoms: _210  and  _211
REMARK   87  A    between atoms: _211  and  _212
REMARK   88  A    between atoms: _215  and  _217
REMARK   89  A    between atoms: _217  and  _218
REMARK   90  A    between atoms: _217  and  _220
REMARK   91  A    between atoms: _220  and  _221
REMARK   92  A    between atoms: _221  and  _222
REMARK   93  A    between atoms: _225  and  _227
REMARK   94  A    between atoms: _227  and  _228
REMARK   95  A    between atoms: _227  and  _230
REMARK   96  A    between atoms: _230  and  _231
REMARK   97  A    between atoms: _234  and  _236
REMARK   98  A    between atoms: _236  and  _237
REMARK   99  A    between atoms: _236  and  _239
REMARK  100  A    between atoms: _239  and  _240
REMARK  101  A    between atoms: _240  and  _241
REMARK  102  A    between atoms: _241  and  _242
REMARK  103  A    between atoms: _251  and  _253
REMARK  104  A    between atoms: _253  and  _254
REMARK  105  A    between atoms: _253  and  _256
REMARK  106  A    between atoms: _256  and  _257
REMARK  107  A    between atoms: _263  and  _265
REMARK  108  A    between atoms: _265  and  _266
REMARK  109  A    between atoms: _265  and  _268
REMARK  110  A    between atoms: _268  and  _269
REMARK  111  A    between atoms: _272  and  _274
REMARK  112  A    between atoms: _274  and  _275
REMARK  113  A    between atoms: _274  and  _277
REMARK  114  A    between atoms: _277  and  _278
REMARK  115  A    between atoms: _278  and  _279
REMARK  116  A    between atoms: _279  and  _280
REMARK  117  A    between atoms: _289  and  _291
REMARK  118  A    between atoms: _291  and  _292
REMARK  119  A    between atoms: _291  and  _294
REMARK  120  A    between atoms: _294  and  _295
REMARK  121  A    between atoms: _300  and  _301
REMARK  122  A    between atoms: _303  and  _305
REMARK  123  A    between atoms: _305  and  _306
REMARK  124  A    between atoms: _308  and  _310
REMARK  125  A    between atoms: _310  and  _311
REMARK  126  A    between atoms: _310  and  _313
REMARK  127  A    between atoms: _313  and  _314
REMARK  128  A    between atoms: _319  and  _320
REMARK  129  A    between atoms: _322  and  _324
REMARK  130  A    between atoms: _324  and  _325
REMARK  131  A    between atoms: _328  and  _330
REMARK  132  A    between atoms: _330  and  _331
REMARK  133  A    between atoms: _330  and  _333
REMARK  134  A    between atoms: _333  and  _334
REMARK  135  A    between atoms: _337  and  _339
REMARK  136  A    between atoms: _339  and  _340
REMARK  137  A    between atoms: _339  and  _342
REMARK  138  A    between atoms: _342  and  _343
REMARK  139  A    between atoms: _346  and  _348
REMARK  140  A    between atoms: _348  and  _349
REMARK  141  A    between atoms: _352  and  _354
REMARK  142  A    between atoms: _354  and  _355
REMARK  143  A    between atoms: _354  and  _357
REMARK  144  A    between atoms: _357  and  _358
REMARK  145  A    between atoms: _361  and  _363
REMARK  146  A    between atoms: _363  and  _364
REMARK  147  A    between atoms: _363  and  _366
REMARK  148  A    between atoms: _366  and  _367
REMARK  149  A    between atoms: _372  and  _374
REMARK  150  A    between atoms: _374  and  _375
REMARK  151  A    between atoms: _374  and  _377
REMARK  152  A    between atoms: _377  and  _378
REMARK  153  A    between atoms: _384  and  _386
REMARK  154  A    between atoms: _386  and  _387
REMARK  155  A    between atoms: _390  and  _392
REMARK  156  A    between atoms: _392  and  _393
REMARK  157  A    between atoms: _392  and  _395
REMARK  158  A    between atoms: _395  and  _396
REMARK  159  A    between atoms: _399  and  _401
REMARK  160  A    between atoms: _401  and  _402
REMARK  161  A    between atoms: _404  and  _406
REMARK  162  A    between atoms: _406  and  _407
REMARK  163  A    between atoms: _406  and  _409
REMARK  164  A    between atoms: _409  and  _410
REMARK  165  A    between atoms: _415  and  _417
REMARK  166  A    between atoms: _417  and  _418
REMARK  167  A    between atoms: _417  and  _420
REMARK  168  A    between atoms: _420  and  _421
REMARK  169  A    between atoms: _431  and  _433
REMARK  170  A    between atoms: _433  and  _434
REMARK  171  A    between atoms: _436  and  _438
REMARK  172  A    between atoms: _438  and  _439
REMARK  173  A    between atoms: _438  and  _441
REMARK  174  A    between atoms: _443  and  _445
REMARK  175  A    between atoms: _445  and  _446
REMARK  176  A    between atoms: _448  and  _450
REMARK  177  A    between atoms: _450  and  _451
REMARK  178  A    between atoms: _454  and  _456
REMARK  179  A    between atoms: _456  and  _457
REMARK  180  A    between atoms: _456  and  _459
REMARK  181  A    between atoms: _459  and  _460
REMARK  182  A    between atoms: _466  and  _468
REMARK  183  A    between atoms: _468  and  _469
REMARK  184  A    between atoms: _471  and  _473
REMARK  185  A    between atoms: _473  and  _474
REMARK  186  A    between atoms: _476  and  _478
REMARK  187  A    between atoms: _478  and  _479
REMARK  188  A    between atoms: _482  and  _484
REMARK  189  A    between atoms: _484  and  _485
REMARK  190  A    between atoms: _484  and  _487
REMARK  191  A    between atoms: _487  and  _488
REMARK  192  A    between atoms: _488  and  _489
REMARK  193  A    between atoms: _489  and  _490
REMARK  194  A    between atoms: _490  and  _491
REMARK  195  A    between atoms: _495  and  _497
REMARK  196  A    between atoms: _497  and  _498
REMARK  197  A    between atoms: _497  and  _500
REMARK  198  A    between atoms: _500  and  _501
REMARK  199  A    between atoms: _506  and  _507
REMARK  200  A    between atoms: _509  and  _511
REMARK  201  A    between atoms: _511  and  _512
REMARK  202  A    between atoms: _511  and  _514
REMARK  203  A    between atoms: _514  and  _515
REMARK  204  A    between atoms: _521  and  _523
REMARK  205  A    between atoms: _523  and  _524
REMARK  206  A    between atoms: _523  and  _526
REMARK  207  A    between atoms: _526  and  _527
REMARK  208  A    between atoms: _530  and  _532
REMARK  209  A    between atoms: _532  and  _533
REMARK  210  A    between atoms: _532  and  _535
REMARK  211  A    between atoms: _535  and  _536
REMARK  212  A    between atoms: _542  and  _544
REMARK  213  A    between atoms: _544  and  _545
REMARK  214  A    between atoms: _547  and  _549
REMARK  215  A    between atoms: _549  and  _550
REMARK  216  A    between atoms: _549  and  _552
REMARK  217  A    between atoms: _552  and  _553
REMARK  218  A    between atoms: _556  and  _558
REMARK  219  A    between atoms: _558  and  _559
REMARK  220  A    between atoms: _558  and  _561
REMARK  221  A    between atoms: _561  and  _562
REMARK                            x       y       z     vdW  Elec       q    Type
REMARK                         _______ _______ _______ _____ _____    ______ ____
ROOT
ATOM      1  O   HOH     1      36.954  -5.565   5.299  0.00  0.00    +0.000 OA
ENDROOT
TORSDOF 0
REMARK  Name = ../refined-set-2016/4b1j/4b1j_pocket.pdb
REMARK  221 active torsions:
REMARK  status: ('A' for Active; 'I' for Inactive)
REMARK    1  A    between atoms: _1  and  _3
REMARK    2  A    between atoms: _3  and  _4
REMARK    3  A    between atoms: _3  and  _6
REMARK    4  A    between atoms: _6  and  _7
REMARK    5  A    between atoms: _7  and  _8
REMARK    6  A    between atoms: _11  and  _13
REMARK    7  A    between atoms: _13  and  _14
REMARK    8  A    between atoms: _16  and  _18
REMARK    9  A    between atoms: _18  and  _19
REMARK   10  A    between atoms: _18  and  _21
REMARK   11  A    between atoms: _21  and  _22
REMARK   12  A    between atoms: _25  and  _27
REMARK   13  A    between atoms: _27  and  _28
REMARK   14  A    between atoms: _27  and  _30
REMARK   15  A    between atoms: _30  and  _31
REMARK   16  A    between atoms: _34  and  _36
REMARK   17  A    between atoms: _36  and  _37
REMARK   18  A    between atoms: _36  and  _39
REMARK   19  A    between atoms: _39  and  _40
REMARK   20  A    between atoms: _40  and  _41
REMARK   21  A    between atoms: _44  and  _46
REMARK   22  A    between atoms: _46  and  _47
REMARK   23  A    between atoms: _46  and  _49
REMARK   24  A    between atoms: _49  and  _50
REMARK   25  A    between atoms: _50  and  _51
REMARK   26  A    between atoms: _54  and  _56
REMARK   27  A    between atoms: _56  and  _57
REMARK   28  A    between atoms: _56  and  _59
REMARK   29  A    between atoms: _59  and  _60
REMARK   30  A    between atoms: _65  and  _67
REMARK   31  A    between atoms: _67  and  _68
REMARK   32  A    between atoms: _67  and  _70
REMARK   33  A    between atoms: _73  and  _75
REMARK   34  A    between atoms: _75  and  _76
REMARK   35  A    between atoms: _75  and  _78
REMARK   36  A    between atoms: _78  and  _79
REMARK   37  A    between atoms: _82  and  _84
REMARK   38  A    between atoms: _84  and  _85
REMARK   39  A    between atoms: _84  and  _87
REMARK   40  A    between atoms: _87  and  _88
REMARK   41  A    between atoms: _94  and  _96
REMARK   42  A    between atoms: _96  and  _97
REMARK   43  A    between atoms: _100  and  _102
REMARK   44  A    between atoms: _102  and  _103
REMARK   45  A    between atoms: _102  and  _105
REMARK   46  A    between atoms: _105  and  _106
REMARK   47  A    between atoms: _111  and  _113
REMARK   48  A    between atoms: _113  and  _114
REMARK   49  A    between atoms: _113  and  _116
REMARK   50  A    between atoms: _116  and  _117
REMARK   51  A    between atoms: _117  and  _118
REMARK   52  A    between atoms: _118  and  _119
REMARK   53  A    between atoms: _128  and  _130
REMARK   54  A    between atoms: _130  and  _131
REMARK   55  A    between atoms: _130  and  _133
REMARK   56  A    between atoms: _133  and  _134
REMARK   57  A    between atoms: _140  and  _142
REMARK   58  A    between atoms: _142  and  _143
REMARK   59  A    between atoms: _142  and  _145
REMARK   60  A    between atoms: _148  and  _150
REMARK   61  A    between atoms: _150  and  _151
REMARK   62  A    between atoms: _153  and  _155
REMARK   63  A    between atoms: _155  and  _156
REMARK   64  A    between atoms: _158  and  _160
REMARK   65  A    between atoms: _160  and  _161
REMARK   66  A    between atoms: _163  and  _165
REMARK   67  A    between atoms: _165  and  _166
REMARK   68  A    between atoms: _165  and  _168
REMARK   69  A    between atoms: _171  and  _173
REMARK   70  A    between atoms: _173  and  _174
REMARK   71  A    between atoms: _176  and  _178
REMARK   72  A    between atoms: _178  and  _179
REMARK   73  A    between atoms: _178  and  _181
REMARK   74  A    between atoms: _181  and  _182
REMARK   75  A    between atoms: _185  and  _187
REMARK   76  A    between atoms: _187  and  _188
REMARK   77  A    between atoms: _187  and  _190
REMARK   78  A    between atoms: _193  and  _195
REMARK   79  A    between atoms: _195  and  _196
REMARK   80  A    between atoms: _195  and  _198
REMARK   81  A    between atoms: _198  and  _199
REMARK   82  A    between atoms: _199  and  _200
REMARK   83  A    between atoms: _205  and  _207
REMARK   84  A    between atoms: _207  and  _208
REMARK   85  A    between atoms: _207  and  _210
REMARK   86  A    between atoms: _210  and  _211
REMARK   87  A    between atoms: _211  and  _212
REMARK   88  A    between atoms: _215  and  _217
REMARK   89  A    between atoms: _217  and  _218
REMARK   90  A    between atoms: _217  and  _220
REMARK   91  A    between atoms: _220  and  _221
REMARK   92  A    between atoms: _221  and  _222
REMARK   93  A    between atoms: _225  and  _227
REMARK   94  A    between atoms: _227  and  _228
REMARK   95  A    between atoms: _227  and  _230
REMARK   96  A    between atoms: _230  and  _231
REMARK   97  A    between atoms: _234  and  _236
REMARK   98  A    between atoms: _236  and  _237
REMARK   99  A    between atoms: _236  and  _239
REMARK  100  A    between atoms: _239  and  _240
REMARK  101  A    between atoms: _240  and  _241
REMARK  102  A    between atoms: _241  and  _242
REMARK  103  A    between atoms: _251  and  _253
REMARK  104  A    between atoms: _253  and  _254
REMARK  105  A    between atoms: _253  and  _256
REMARK  106  A    between atoms: _256  and  _257
REMARK  107  A    between atoms: _263  and  _265
REMARK  108  A    between atoms: _265  and  _266
REMARK  109  A    between atoms: _265  and  _268
REMARK  110  A    between atoms: _268  and  _269
REMARK  111  A    between atoms: _272  and  _274
REMARK  112  A    between atoms: _274  and  _275
REMARK  113  A    between atoms: _274  and  _277
REMARK  114  A    between atoms: _277  and  _278
REMARK  115  A    between atoms: _278  and  _279
REMARK  116  A    between atoms: _279  and  _280
REMARK  117  A    between atoms: _289  and  _291
REMARK  118  A    between atoms: _291  and  _292
REMARK  119  A    between atoms: _291  and  _294
REMARK  120  A    between atoms: _294  and  _295
REMARK  121  A    between atoms: _300  and  _301
REMARK  122  A    between atoms: _303  and  _305
REMARK  123  A    between atoms: _305  and  _306
REMARK  124  A    between atoms: _308  and  _310
REMARK  125  A    between atoms: _310  and  _311
REMARK  126  A    between atoms: _310  and  _313
REMARK  127  A    between atoms: _313  and  _314
REMARK  128  A    between atoms: _319  and  _320
REMARK  129  A    between atoms: _322  and  _324
REMARK  130  A    between atoms: _324  and  _325
REMARK  131  A    between atoms: _328  and  _330
REMARK  132  A    between atoms: _330  and  _331
REMARK  133  A    between atoms: _330  and  _333
REMARK  134  A    between atoms: _333  and  _334
REMARK  135  A    between atoms: _337  and  _339
REMARK  136  A    between atoms: _339  and  _340
REMARK  137  A    between atoms: _339  and  _342
REMARK  138  A    between atoms: _342  and  _343
REMARK  139  A    between atoms: _346  and  _348
REMARK  140  A    between atoms: _348  and  _349
REMARK  141  A    between atoms: _352  and  _354
REMARK  142  A    between atoms: _354  and  _355
REMARK  143  A    between atoms: _354  and  _357
REMARK  144  A    between atoms: _357  and  _358
REMARK  145  A    between atoms: _361  and  _363
REMARK  146  A    between atoms: _363  and  _364
REMARK  147  A    between atoms: _363  and  _366
REMARK  148  A    between atoms: _366  and  _367
REMARK  149  A    between atoms: _372  and  _374
REMARK  150  A    between atoms: _374  and  _375
REMARK  151  A    between atoms: _374  and  _377
REMARK  152  A    between atoms: _377  and  _378
REMARK  153  A    between atoms: _384  and  _386
REMARK  154  A    between atoms: _386  and  _387
REMARK  155  A    between atoms: _390  and  _392
REMARK  156  A    between atoms: _392  and  _393
REMARK  157  A    between atoms: _392  and  _395
REMARK  158  A    between atoms: _395  and  _396
REMARK  159  A    between atoms: _399  and  _401
REMARK  160  A    between atoms: _401  and  _402
REMARK  161  A    between atoms: _404  and  _406
REMARK  162  A    between atoms: _406  and  _407
REMARK  163  A    between atoms: _406  and  _409
REMARK  164  A    between atoms: _409  and  _410
REMARK  165  A    between atoms: _415  and  _417
REMARK  166  A    between atoms: _417  and  _418
REMARK  167  A    between atoms: _417  and  _420
REMARK  168  A    between atoms: _420  and  _421
REMARK  169  A    between atoms: _431  and  _433
REMARK  170  A    between atoms: _433  and  _434
REMARK  171  A    between atoms: _436  and  _438
REMARK  172  A    between atoms: _438  and  _439
REMARK  173  A    between atoms: _438  and  _441
REMARK  174  A    between atoms: _443  and  _445
REMARK  175  A    between atoms: _445  and  _446
REMARK  176  A    between atoms: _448  and  _450
REMARK  177  A    between atoms: _450  and  _451
REMARK  178  A    between atoms: _454  and  _456
REMARK  179  A    between atoms: _456  and  _457
REMARK  180  A    between atoms: _456  and  _459
REMARK  181  A    between atoms: _459  and  _460
REMARK  182  A    between atoms: _466  and  _468
REMARK  183  A    between atoms: _468  and  _469
REMARK  184  A    between atoms: _471  and  _473
REMARK  185  A    between atoms: _473  and  _474
REMARK  186  A    between atoms: _476  and  _478
REMARK  187  A    between atoms: _478  and  _479
REMARK  188  A    between atoms: _482  and  _484
REMARK  189  A    between atoms: _484  and  _485
REMARK  190  A    between atoms: _484  and  _487
REMARK  191  A    between atoms: _487  and  _488
REMARK  192  A    between atoms: _488  and  _489
REMARK  193  A    between atoms: _489  and  _490
REMARK  194  A    between atoms: _490  and  _491
REMARK  195  A    between atoms: _495  and  _497
REMARK  196  A    between atoms: _497  and  _498
REMARK  197  A    between atoms: _497  and  _500
REMARK  198  A    between atoms: _500  and  _501
REMARK  199  A    between atoms: _506  and  _507
REMARK  200  A    between atoms: _509  and  _511
REMARK  201  A    between atoms: _511  and  _512
REMARK  202  A    between atoms: _511  and  _514
REMARK  203  A    between atoms: _514  and  _515
REMARK  204  A    between atoms: _521  and  _523
REMARK  205  A    between atoms: _523  and  _524
REMARK  206  A    between atoms: _523  and  _526
REMARK  207  A    between atoms: _526  and  _527
REMARK  208  A    between atoms: _530  and  _532
REMARK  209  A    between atoms: _532  and  _533
REMARK  210  A    between atoms: _532  and  _535
REMARK  211  A    between atoms: _535  and  _536
REMARK  212  A    between atoms: _542  and  _544
REMARK  213  A    between atoms: _544  and  _545
REMARK  214  A    between atoms: _547  and  _549
REMARK  215  A    between atoms: _549  and  _550
REMARK  216  A    between atoms: _549  and  _552
REMARK  217  A    between atoms: _552  and  _553
REMARK  218  A    between atoms: _556  and  _558
REMARK  219  A    between atoms: _558  and  _559
REMARK  220  A    between atoms: _558  and  _561
REMARK  221  A    between atoms: _561  and  _562
REMARK                            x       y       z     vdW  Elec       q    Type
REMARK                         _______ _______ _______ _____ _____    ______ ____
ROOT
ATOM      1  O   HOH     1      36.809  -3.100   4.698  0.00  0.00    +0.000 OA
ENDROOT
TORSDOF 0
REMARK  Name = ../refined-set-2016/4b1j/4b1j_pocket.pdb
REMARK  221 active torsions:
REMARK  status: ('A' for Active; 'I' for Inactive)
REMARK    1  A    between atoms: _1  and  _3
REMARK    2  A    between atoms: _3  and  _4
REMARK    3  A    between atoms: _3  and  _6
REMARK    4  A    between atoms: _6  and  _7
REMARK    5  A    between atoms: _7  and  _8
REMARK    6  A    between atoms: _11  and  _13
REMARK    7  A    between atoms: _13  and  _14
REMARK    8  A    between atoms: _16  and  _18
REMARK    9  A    between atoms: _18  and  _19
REMARK   10  A    between atoms: _18  and  _21
REMARK   11  A    between atoms: _21  and  _22
REMARK   12  A    between atoms: _25  and  _27
REMARK   13  A    between atoms: _27  and  _28
REMARK   14  A    between atoms: _27  and  _30
REMARK   15  A    between atoms: _30  and  _31
REMARK   16  A    between atoms: _34  and  _36
REMARK   17  A    between atoms: _36  and  _37
REMARK   18  A    between atoms: _36  and  _39
REMARK   19  A    between atoms: _39  and  _40
REMARK   20  A    between atoms: _40  and  _41
REMARK   21  A    between atoms: _44  and  _46
REMARK   22  A    between atoms: _46  and  _47
REMARK   23  A    between atoms: _46  and  _49
REMARK   24  A    between atoms: _49  and  _50
REMARK   25  A    between atoms: _50  and  _51
REMARK   26  A    between atoms: _54  and  _56
REMARK   27  A    between atoms: _56  and  _57
REMARK   28  A    between atoms: _56  and  _59
REMARK   29  A    between atoms: _59  and  _60
REMARK   30  A    between atoms: _65  and  _67
REMARK   31  A    between atoms: _67  and  _68
REMARK   32  A    between atoms: _67  and  _70
REMARK   33  A    between atoms: _73  and  _75
REMARK   34  A    between atoms: _75  and  _76
REMARK   35  A    between atoms: _75  and  _78
REMARK   36  A    between atoms: _78  and  _79
REMARK   37  A    between atoms: _82  and  _84
REMARK   38  A    between atoms: _84  and  _85
REMARK   39  A    between atoms: _84  and  _87
REMARK   40  A    between atoms: _87  and  _88
REMARK   41  A    between atoms: _94  and  _96
REMARK   42  A    between atoms: _96  and  _97
REMARK   43  A    between atoms: _100  and  _102
REMARK   44  A    between atoms: _102  and  _103
REMARK   45  A    between atoms: _102  and  _105
REMARK   46  A    between atoms: _105  and  _106
REMARK   47  A    between atoms: _111  and  _113
REMARK   48  A    between atoms: _113  and  _114
REMARK   49  A    between atoms: _113  and  _116
REMARK   50  A    between atoms: _116  and  _117
REMARK   51  A    between atoms: _117  and  _118
REMARK   52  A    between atoms: _118  and  _119
REMARK   53  A    between atoms: _128  and  _130
REMARK   54  A    between atoms: _130  and  _131
REMARK   55  A    between atoms: _130  and  _133
REMARK   56  A    between atoms: _133  and  _134
REMARK   57  A    between atoms: _140  and  _142
REMARK   58  A    between atoms: _142  and  _143
REMARK   59  A    between atoms: _142  and  _145
REMARK   60  A    between atoms: _148  and  _150
REMARK   61  A    between atoms: _150  and  _151
REMARK   62  A    between atoms: _153  and  _155
REMARK   63  A    between atoms: _155  and  _156
REMARK   64  A    between atoms: _158  and  _160
REMARK   65  A    between atoms: _160  and  _161
REMARK   66  A    between atoms: _163  and  _165
REMARK   67  A    between atoms: _165  and  _166
REMARK   68  A    between atoms: _165  and  _168
REMARK   69  A    between atoms: _171  and  _173
REMARK   70  A    between atoms: _173  and  _174
REMARK   71  A    between atoms: _176  and  _178
REMARK   72  A    between atoms: _178  and  _179
REMARK   73  A    between atoms: _178  and  _181
REMARK   74  A    between atoms: _181  and  _182
REMARK   75  A    between atoms: _185  and  _187
REMARK   76  A    between atoms: _187  and  _188
REMARK   77  A    between atoms: _187  and  _190
REMARK   78  A    between atoms: _193  and  _195
REMARK   79  A    between atoms: _195  and  _196
REMARK   80  A    between atoms: _195  and  _198
REMARK   81  A    between atoms: _198  and  _199
REMARK   82  A    between atoms: _199  and  _200
REMARK   83  A    between atoms: _205  and  _207
REMARK   84  A    between atoms: _207  and  _208
REMARK   85  A    between atoms: _207  and  _210
REMARK   86  A    between atoms: _210  and  _211
REMARK   87  A    between atoms: _211  and  _212
REMARK   88  A    between atoms: _215  and  _217
REMARK   89  A    between atoms: _217  and  _218
REMARK   90  A    between atoms: _217  and  _220
REMARK   91  A    between atoms: _220  and  _221
REMARK   92  A    between atoms: _221  and  _222
REMARK   93  A    between atoms: _225  and  _227
REMARK   94  A    between atoms: _227  and  _228
REMARK   95  A    between atoms: _227  and  _230
REMARK   96  A    between atoms: _230  and  _231
REMARK   97  A    between atoms: _234  and  _236
REMARK   98  A    between atoms: _236  and  _237
REMARK   99  A    between atoms: _236  and  _239
REMARK  100  A    between atoms: _239  and  _240
REMARK  101  A    between atoms: _240  and  _241
REMARK  102  A    between atoms: _241  and  _242
REMARK  103  A    between atoms: _251  and  _253
REMARK  104  A    between atoms: _253  and  _254
REMARK  105  A    between atoms: _253  and  _256
REMARK  106  A    between atoms: _256  and  _257
REMARK  107  A    between atoms: _263  and  _265
REMARK  108  A    between atoms: _265  and  _266
REMARK  109  A    between atoms: _265  and  _268
REMARK  110  A    between atoms: _268  and  _269
REMARK  111  A    between atoms: _272  and  _274
REMARK  112  A    between atoms: _274  and  _275
REMARK  113  A    between atoms: _274  and  _277
REMARK  114  A    between atoms: _277  and  _278
REMARK  115  A    between atoms: _278  and  _279
REMARK  116  A    between atoms: _279  and  _280
REMARK  117  A    between atoms: _289  and  _291
REMARK  118  A    between atoms: _291  and  _292
REMARK  119  A    between atoms: _291  and  _294
REMARK  120  A    between atoms: _294  and  _295
REMARK  121  A    between atoms: _300  and  _301
REMARK  122  A    between atoms: _303  and  _305
REMARK  123  A    between atoms: _305  and  _306
REMARK  124  A    between atoms: _308  and  _310
REMARK  125  A    between atoms: _310  and  _311
REMARK  126  A    between atoms: _310  and  _313
REMARK  127  A    between atoms: _313  and  _314
REMARK  128  A    between atoms: _319  and  _320
REMARK  129  A    between atoms: _322  and  _324
REMARK  130  A    between atoms: _324  and  _325
REMARK  131  A    between atoms: _328  and  _330
REMARK  132  A    between atoms: _330  and  _331
REMARK  133  A    between atoms: _330  and  _333
REMARK  134  A    between atoms: _333  and  _334
REMARK  135  A    between atoms: _337  and  _339
REMARK  136  A    between atoms: _339  and  _340
REMARK  137  A    between atoms: _339  and  _342
REMARK  138  A    between atoms: _342  and  _343
REMARK  139  A    between atoms: _346  and  _348
REMARK  140  A    between atoms: _348  and  _349
REMARK  141  A    between atoms: _352  and  _354
REMARK  142  A    between atoms: _354  and  _355
REMARK  143  A    between atoms: _354  and  _357
REMARK  144  A    between atoms: _357  and  _358
REMARK  145  A    between atoms: _361  and  _363
REMARK  146  A    between atoms: _363  and  _364
REMARK  147  A    between atoms: _363  and  _366
REMARK  148  A    between atoms: _366  and  _367
REMARK  149  A    between atoms: _372  and  _374
REMARK  150  A    between atoms: _374  and  _375
REMARK  151  A    between atoms: _374  and  _377
REMARK  152  A    between atoms: _377  and  _378
REMARK  153  A    between atoms: _384  and  _386
REMARK  154  A    between atoms: _386  and  _387
REMARK  155  A    between atoms: _390  and  _392
REMARK  156  A    between atoms: _392  and  _393
REMARK  157  A    between atoms: _392  and  _395
REMARK  158  A    between atoms: _395  and  _396
REMARK  159  A    between atoms: _399  and  _401
REMARK  160  A    between atoms: _401  and  _402
REMARK  161  A    between atoms: _404  and  _406
REMARK  162  A    between atoms: _406  and  _407
REMARK  163  A    between atoms: _406  and  _409
REMARK  164  A    between atoms: _409  and  _410
REMARK  165  A    between atoms: _415  and  _417
REMARK  166  A    between atoms: _417  and  _418
REMARK  167  A    between atoms: _417  and  _420
REMARK  168  A    between atoms: _420  and  _421
REMARK  169  A    between atoms: _431  and  _433
REMARK  170  A    between atoms: _433  and  _434
REMARK  171  A    between atoms: _436  and  _438
REMARK  172  A    between atoms: _438  and  _439
REMARK  173  A    between atoms: _438  and  _441
REMARK  174  A    between atoms: _443  and  _445
REMARK  175  A    between atoms: _445  and  _446
REMARK  176  A    between atoms: _448  and  _450
REMARK  177  A    between atoms: _450  and  _451
REMARK  178  A    between atoms: _454  and  _456
REMARK  179  A    between atoms: _456  and  _457
REMARK  180  A    between atoms: _456  and  _459
REMARK  181  A    between atoms: _459  and  _460
REMARK  182  A    between atoms: _466  and  _468
REMARK  183  A    between atoms: _468  and  _469
REMARK  184  A    between atoms: _471  and  _473
REMARK  185  A    between atoms: _473  and  _474
REMARK  186  A    between atoms: _476  and  _478
REMARK  187  A    between atoms: _478  and  _479
REMARK  188  A    between atoms: _482  and  _484
REMARK  189  A    between atoms: _484  and  _485
REMARK  190  A    between atoms: _484  and  _487
REMARK  191  A    between atoms: _487  and  _488
REMARK  192  A    between atoms: _488  and  _489
REMARK  193  A    between atoms: _489  and  _490
REMARK  194  A    between atoms: _490  and  _491
REMARK  195  A    between atoms: _495  and  _497
REMARK  196  A    between atoms: _497  and  _498
REMARK  197  A    between atoms: _497  and  _500
REMARK  198  A    between atoms: _500  and  _501
REMARK  199  A    between atoms: _506  and  _507
REMARK  200  A    between atoms: _509  and  _511
REMARK  201  A    between atoms: _511  and  _512
REMARK  202  A    between atoms: _511  and  _514
REMARK  203  A    between atoms: _514  and  _515
REMARK  204  A    between atoms: _521  and  _523
REMARK  205  A    between atoms: _523  and  _524
REMARK  206  A    between atoms: _523  and  _526
REMARK  207  A    between atoms: _526  and  _527
REMARK  208  A    between atoms: _530  and  _532
REMARK  209  A    between atoms: _532  and  _533
REMARK  210  A    between atoms: _532  and  _535
REMARK  211  A    between atoms: _535  and  _536
REMARK  212  A    between atoms: _542  and  _544
REMARK  213  A    between atoms: _544  and  _545
REMARK  214  A    between atoms: _547  and  _549
REMARK  215  A    between atoms: _549  and  _550
REMARK  216  A    between atoms: _549  and  _552
REMARK  217  A    between atoms: _552  and  _553
REMARK  218  A    between atoms: _556  and  _558
REMARK  219  A    between atoms: _558  and  _559
REMARK  220  A    between atoms: _558  and  _561
REMARK  221  A    between atoms: _561  and  _562
REMARK                            x       y       z     vdW  Elec       q    Type
REMARK                         _______ _______ _______ _____ _____    ______ ____
ROOT
ATOM      1  O   HOH     1      35.691   1.310   3.051  0.00  0.00    +0.000 OA
ENDROOT
TORSDOF 0
REMARK  Name = ../refined-set-2016/4b1j/4b1j_pocket.pdb
REMARK  221 active torsions:
REMARK  status: ('A' for Active; 'I' for Inactive)
REMARK    1  A    between atoms: _1  and  _3
REMARK    2  A    between atoms: _3  and  _4
REMARK    3  A    between atoms: _3  and  _6
REMARK    4  A    between atoms: _6  and  _7
REMARK    5  A    between atoms: _7  and  _8
REMARK    6  A    between atoms: _11  and  _13
REMARK    7  A    between atoms: _13  and  _14
REMARK    8  A    between atoms: _16  and  _18
REMARK    9  A    between atoms: _18  and  _19
REMARK   10  A    between atoms: _18  and  _21
REMARK   11  A    between atoms: _21  and  _22
REMARK   12  A    between atoms: _25  and  _27
REMARK   13  A    between atoms: _27  and  _28
REMARK   14  A    between atoms: _27  and  _30
REMARK   15  A    between atoms: _30  and  _31
REMARK   16  A    between atoms: _34  and  _36
REMARK   17  A    between atoms: _36  and  _37
REMARK   18  A    between atoms: _36  and  _39
REMARK   19  A    between atoms: _39  and  _40
REMARK   20  A    between atoms: _40  and  _41
REMARK   21  A    between atoms: _44  and  _46
REMARK   22  A    between atoms: _46  and  _47
REMARK   23  A    between atoms: _46  and  _49
REMARK   24  A    between atoms: _49  and  _50
REMARK   25  A    between atoms: _50  and  _51
REMARK   26  A    between atoms: _54  and  _56
REMARK   27  A    between atoms: _56  and  _57
REMARK   28  A    between atoms: _56  and  _59
REMARK   29  A    between atoms: _59  and  _60
REMARK   30  A    between atoms: _65  and  _67
REMARK   31  A    between atoms: _67  and  _68
REMARK   32  A    between atoms: _67  and  _70
REMARK   33  A    between atoms: _73  and  _75
REMARK   34  A    between atoms: _75  and  _76
REMARK   35  A    between atoms: _75  and  _78
REMARK   36  A    between atoms: _78  and  _79
REMARK   37  A    between atoms: _82  and  _84
REMARK   38  A    between atoms: _84  and  _85
REMARK   39  A    between atoms: _84  and  _87
REMARK   40  A    between atoms: _87  and  _88
REMARK   41  A    between atoms: _94  and  _96
REMARK   42  A    between atoms: _96  and  _97
REMARK   43  A    between atoms: _100  and  _102
REMARK   44  A    between atoms: _102  and  _103
REMARK   45  A    between atoms: _102  and  _105
REMARK   46  A    between atoms: _105  and  _106
REMARK   47  A    between atoms: _111  and  _113
REMARK   48  A    between atoms: _113  and  _114
REMARK   49  A    between atoms: _113  and  _116
REMARK   50  A    between atoms: _116  and  _117
REMARK   51  A    between atoms: _117  and  _118
REMARK   52  A    between atoms: _118  and  _119
REMARK   53  A    between atoms: _128  and  _130
REMARK   54  A    between atoms: _130  and  _131
REMARK   55  A    between atoms: _130  and  _133
REMARK   56  A    between atoms: _133  and  _134
REMARK   57  A    between atoms: _140  and  _142
REMARK   58  A    between atoms: _142  and  _143
REMARK   59  A    between atoms: _142  and  _145
REMARK   60  A    between atoms: _148  and  _150
REMARK   61  A    between atoms: _150  and  _151
REMARK   62  A    between atoms: _153  and  _155
REMARK   63  A    between atoms: _155  and  _156
REMARK   64  A    between atoms: _158  and  _160
REMARK   65  A    between atoms: _160  and  _161
REMARK   66  A    between atoms: _163  and  _165
REMARK   67  A    between atoms: _165  and  _166
REMARK   68  A    between atoms: _165  and  _168
REMARK   69  A    between atoms: _171  and  _173
REMARK   70  A    between atoms: _173  and  _174
REMARK   71  A    between atoms: _176  and  _178
REMARK   72  A    between atoms: _178  and  _179
REMARK   73  A    between atoms: _178  and  _181
REMARK   74  A    between atoms: _181  and  _182
REMARK   75  A    between atoms: _185  and  _187
REMARK   76  A    between atoms: _187  and  _188
REMARK   77  A    between atoms: _187  and  _190
REMARK   78  A    between atoms: _193  and  _195
REMARK   79  A    between atoms: _195  and  _196
REMARK   80  A    between atoms: _195  and  _198
REMARK   81  A    between atoms: _198  and  _199
REMARK   82  A    between atoms: _199  and  _200
REMARK   83  A    between atoms: _205  and  _207
REMARK   84  A    between atoms: _207  and  _208
REMARK   85  A    between atoms: _207  and  _210
REMARK   86  A    between atoms: _210  and  _211
REMARK   87  A    between atoms: _211  and  _212
REMARK   88  A    between atoms: _215  and  _217
REMARK   89  A    between atoms: _217  and  _218
REMARK   90  A    between atoms: _217  and  _220
REMARK   91  A    between atoms: _220  and  _221
REMARK   92  A    between atoms: _221  and  _222
REMARK   93  A    between atoms: _225  and  _227
REMARK   94  A    between atoms: _227  and  _228
REMARK   95  A    between atoms: _227  and  _230
REMARK   96  A    between atoms: _230  and  _231
REMARK   97  A    between atoms: _234  and  _236
REMARK   98  A    between atoms: _236  and  _237
REMARK   99  A    between atoms: _236  and  _239
REMARK  100  A    between atoms: _239  and  _240
REMARK  101  A    between atoms: _240  and  _241
REMARK  102  A    between atoms: _241  and  _242
REMARK  103  A    between atoms: _251  and  _253
REMARK  104  A    between atoms: _253  and  _254
REMARK  105  A    between atoms: _253  and  _256
REMARK  106  A    between atoms: _256  and  _257
REMARK  107  A    between atoms: _263  and  _265
REMARK  108  A    between atoms: _265  and  _266
REMARK  109  A    between atoms: _265  and  _268
REMARK  110  A    between atoms: _268  and  _269
REMARK  111  A    between atoms: _272  and  _274
REMARK  112  A    between atoms: _274  and  _275
REMARK  113  A    between atoms: _274  and  _277
REMARK  114  A    between atoms: _277  and  _278
REMARK  115  A    between atoms: _278  and  _279
REMARK  116  A    between atoms: _279  and  _280
REMARK  117  A    between atoms: _289  and  _291
REMARK  118  A    between atoms: _291  and  _292
REMARK  119  A    between atoms: _291  and  _294
REMARK  120  A    between atoms: _294  and  _295
REMARK  121  A    between atoms: _300  and  _301
REMARK  122  A    between atoms: _303  and  _305
REMARK  123  A    between atoms: _305  and  _306
REMARK  124  A    between atoms: _308  and  _310
REMARK  125  A    between atoms: _310  and  _311
REMARK  126  A    between atoms: _310  and  _313
REMARK  127  A    between atoms: _313  and  _314
REMARK  128  A    between atoms: _319  and  _320
REMARK  129  A    between atoms: _322  and  _324
REMARK  130  A    between atoms: _324  and  _325
REMARK  131  A    between atoms: _328  and  _330
REMARK  132  A    between atoms: _330  and  _331
REMARK  133  A    between atoms: _330  and  _333
REMARK  134  A    between atoms: _333  and  _334
REMARK  135  A    between atoms: _337  and  _339
REMARK  136  A    between atoms: _339  and  _340
REMARK  137  A    between atoms: _339  and  _342
REMARK  138  A    between atoms: _342  and  _343
REMARK  139  A    between atoms: _346  and  _348
REMARK  140  A    between atoms: _348  and  _349
REMARK  141  A    between atoms: _352  and  _354
REMARK  142  A    between atoms: _354  and  _355
REMARK  143  A    between atoms: _354  and  _357
REMARK  144  A    between atoms: _357  and  _358
REMARK  145  A    between atoms: _361  and  _363
REMARK  146  A    between atoms: _363  and  _364
REMARK  147  A    between atoms: _363  and  _366
REMARK  148  A    between atoms: _366  and  _367
REMARK  149  A    between atoms: _372  and  _374
REMARK  150  A    between atoms: _374  and  _375
REMARK  151  A    between atoms: _374  and  _377
REMARK  152  A    between atoms: _377  and  _378
REMARK  153  A    between atoms: _384  and  _386
REMARK  154  A    between atoms: _386  and  _387
REMARK  155  A    between atoms: _390  and  _392
REMARK  156  A    between atoms: _392  and  _393
REMARK  157  A    between atoms: _392  and  _395
REMARK  158  A    between atoms: _395  and  _396
REMARK  159  A    between atoms: _399  and  _401
REMARK  160  A    between atoms: _401  and  _402
REMARK  161  A    between atoms: _404  and  _406
REMARK  162  A    between atoms: _406  and  _407
REMARK  163  A    between atoms: _406  and  _409
REMARK  164  A    between atoms: _409  and  _410
REMARK  165  A    between atoms: _415  and  _417
REMARK  166  A    between atoms: _417  and  _418
REMARK  167  A    between atoms: _417  and  _420
REMARK  168  A    between atoms: _420  and  _421
REMARK  169  A    between atoms: _431  and  _433
REMARK  170  A    between atoms: _433  and  _434
REMARK  171  A    between atoms: _436  and  _438
REMARK  172  A    between atoms: _438  and  _439
REMARK  173  A    between atoms: _438  and  _441
REMARK  174  A    between atoms: _443  and  _445
REMARK  175  A    between atoms: _445  and  _446
REMARK  176  A    between atoms: _448  and  _450
REMARK  177  A    between atoms: _450  and  _451
REMARK  178  A    between atoms: _454  and  _456
REMARK  179  A    between atoms: _456  and  _457
REMARK  180  A    between atoms: _456  and  _459
REMARK  181  A    between atoms: _459  and  _460
REMARK  182  A    between atoms: _466  and  _468
REMARK  183  A    between atoms: _468  and  _469
REMARK  184  A    between atoms: _471  and  _473
REMARK  185  A    between atoms: _473  and  _474
REMARK  186  A    between atoms: _476  and  _478
REMARK  187  A    between atoms: _478  and  _479
REMARK  188  A    between atoms: _482  and  _484
REMARK  189  A    between atoms: _484  and  _485
REMARK  190  A    between atoms: _484  and  _487
REMARK  191  A    between atoms: _487  and  _488
REMARK  192  A    between atoms: _488  and  _489
REMARK  193  A    between atoms: _489  and  _490
REMARK  194  A    between atoms: _490  and  _491
REMARK  195  A    between atoms: _495  and  _497
REMARK  196  A    between atoms: _497  and  _498
REMARK  197  A    between atoms: _497  and  _500
REMARK  198  A    between atoms: _500  and  _501
REMARK  199  A    between atoms: _506  and  _507
REMARK  200  A    between atoms: _509  and  _511
REMARK  201  A    between atoms: _511  and  _512
REMARK  202  A    between atoms: _511  and  _514
REMARK  203  A    between atoms: _514  and  _515
REMARK  204  A    between atoms: _521  and  _523
REMARK  205  A    between atoms: _523  and  _524
REMARK  206  A    between atoms: _523  and  _526
REMARK  207  A    between atoms: _526  and  _527
REMARK  208  A    between atoms: _530  and  _532
REMARK  209  A    between atoms: _532  and  _533
REMARK  210  A    between atoms: _532  and  _535
REMARK  211  A    between atoms: _535  and  _536
REMARK  212  A    between atoms: _542  and  _544
REMARK  213  A    between atoms: _544  and  _545
REMARK  214  A    between atoms: _547  and  _549
REMARK  215  A    between atoms: _549  and  _550
REMARK  216  A    between atoms: _549  and  _552
REMARK  217  A    between atoms: _552  and  _553
REMARK  218  A    between atoms: _556  and  _558
REMARK  219  A    between atoms: _558  and  _559
REMARK  220  A    between atoms: _558  and  _561
REMARK  221  A    between atoms: _561  and  _562
REMARK                            x       y       z     vdW  Elec       q    Type
REMARK                         _______ _______ _______ _____ _____    ______ ____
ROOT
ATOM      1  O   HOH     1      31.870  -7.259  -2.785  0.00  0.00    +0.000 OA
ENDROOT
TORSDOF 0
REMARK  Name = ../refined-set-2016/4b1j/4b1j_pocket.pdb
REMARK  221 active torsions:
REMARK  status: ('A' for Active; 'I' for Inactive)
REMARK    1  A    between atoms: _1  and  _3
REMARK    2  A    between atoms: _3  and  _4
REMARK    3  A    between atoms: _3  and  _6
REMARK    4  A    between atoms: _6  and  _7
REMARK    5  A    between atoms: _7  and  _8
REMARK    6  A    between atoms: _11  and  _13
REMARK    7  A    between atoms: _13  and  _14
REMARK    8  A    between atoms: _16  and  _18
REMARK    9  A    between atoms: _18  and  _19
REMARK   10  A    between atoms: _18  and  _21
REMARK   11  A    between atoms: _21  and  _22
REMARK   12  A    between atoms: _25  and  _27
REMARK   13  A    between atoms: _27  and  _28
REMARK   14  A    between atoms: _27  and  _30
REMARK   15  A    between atoms: _30  and  _31
REMARK   16  A    between atoms: _34  and  _36
REMARK   17  A    between atoms: _36  and  _37
REMARK   18  A    between atoms: _36  and  _39
REMARK   19  A    between atoms: _39  and  _40
REMARK   20  A    between atoms: _40  and  _41
REMARK   21  A    between atoms: _44  and  _46
REMARK   22  A    between atoms: _46  and  _47
REMARK   23  A    between atoms: _46  and  _49
REMARK   24  A    between atoms: _49  and  _50
REMARK   25  A    between atoms: _50  and  _51
REMARK   26  A    between atoms: _54  and  _56
REMARK   27  A    between atoms: _56  and  _57
REMARK   28  A    between atoms: _56  and  _59
REMARK   29  A    between atoms: _59  and  _60
REMARK   30  A    between atoms: _65  and  _67
REMARK   31  A    between atoms: _67  and  _68
REMARK   32  A    between atoms: _67  and  _70
REMARK   33  A    between atoms: _73  and  _75
REMARK   34  A    between atoms: _75  and  _76
REMARK   35  A    between atoms: _75  and  _78
REMARK   36  A    between atoms: _78  and  _79
REMARK   37  A    between atoms: _82  and  _84
REMARK   38  A    between atoms: _84  and  _85
REMARK   39  A    between atoms: _84  and  _87
REMARK   40  A    between atoms: _87  and  _88
REMARK   41  A    between atoms: _94  and  _96
REMARK   42  A    between atoms: _96  and  _97
REMARK   43  A    between atoms: _100  and  _102
REMARK   44  A    between atoms: _102  and  _103
REMARK   45  A    between atoms: _102  and  _105
REMARK   46  A    between atoms: _105  and  _106
REMARK   47  A    between atoms: _111  and  _113
REMARK   48  A    between atoms: _113  and  _114
REMARK   49  A    between atoms: _113  and  _116
REMARK   50  A    between atoms: _116  and  _117
REMARK   51  A    between atoms: _117  and  _118
REMARK   52  A    between atoms: _118  and  _119
REMARK   53  A    between atoms: _128  and  _130
REMARK   54  A    between atoms: _130  and  _131
REMARK   55  A    between atoms: _130  and  _133
REMARK   56  A    between atoms: _133  and  _134
REMARK   57  A    between atoms: _140  and  _142
REMARK   58  A    between atoms: _142  and  _143
REMARK   59  A    between atoms: _142  and  _145
REMARK   60  A    between atoms: _148  and  _150
REMARK   61  A    between atoms: _150  and  _151
REMARK   62  A    between atoms: _153  and  _155
REMARK   63  A    between atoms: _155  and  _156
REMARK   64  A    between atoms: _158  and  _160
REMARK   65  A    between atoms: _160  and  _161
REMARK   66  A    between atoms: _163  and  _165
REMARK   67  A    between atoms: _165  and  _166
REMARK   68  A    between atoms: _165  and  _168
REMARK   69  A    between atoms: _171  and  _173
REMARK   70  A    between atoms: _173  and  _174
REMARK   71  A    between atoms: _176  and  _178
REMARK   72  A    between atoms: _178  and  _179
REMARK   73  A    between atoms: _178  and  _181
REMARK   74  A    between atoms: _181  and  _182
REMARK   75  A    between atoms: _185  and  _187
REMARK   76  A    between atoms: _187  and  _188
REMARK   77  A    between atoms: _187  and  _190
REMARK   78  A    between atoms: _193  and  _195
REMARK   79  A    between atoms: _195  and  _196
REMARK   80  A    between atoms: _195  and  _198
REMARK   81  A    between atoms: _198  and  _199
REMARK   82  A    between atoms: _199  and  _200
REMARK   83  A    between atoms: _205  and  _207
REMARK   84  A    between atoms: _207  and  _208
REMARK   85  A    between atoms: _207  and  _210
REMARK   86  A    between atoms: _210  and  _211
REMARK   87  A    between atoms: _211  and  _212
REMARK   88  A    between atoms: _215  and  _217
REMARK   89  A    between atoms: _217  and  _218
REMARK   90  A    between atoms: _217  and  _220
REMARK   91  A    between atoms: _220  and  _221
REMARK   92  A    between atoms: _221  and  _222
REMARK   93  A    between atoms: _225  and  _227
REMARK   94  A    between atoms: _227  and  _228
REMARK   95  A    between atoms: _227  and  _230
REMARK   96  A    between atoms: _230  and  _231
REMARK   97  A    between atoms: _234  and  _236
REMARK   98  A    between atoms: _236  and  _237
REMARK   99  A    between atoms: _236  and  _239
REMARK  100  A    between atoms: _239  and  _240
REMARK  101  A    between atoms: _240  and  _241
REMARK  102  A    between atoms: _241  and  _242
REMARK  103  A    between atoms: _251  and  _253
REMARK  104  A    between atoms: _253  and  _254
REMARK  105  A    between atoms: _253  and  _256
REMARK  106  A    between atoms: _256  and  _257
REMARK  107  A    between atoms: _263  and  _265
REMARK  108  A    between atoms: _265  and  _266
REMARK  109  A    between atoms: _265  and  _268
REMARK  110  A    between atoms: _268  and  _269
REMARK  111  A    between atoms: _272  and  _274
REMARK  112  A    between atoms: _274  and  _275
REMARK  113  A    between atoms: _274  and  _277
REMARK  114  A    between atoms: _277  and  _278
REMARK  115  A    between atoms: _278  and  _279
REMARK  116  A    between atoms: _279  and  _280
REMARK  117  A    between atoms: _289  and  _291
REMARK  118  A    between atoms: _291  and  _292
REMARK  119  A    between atoms: _291  and  _294
REMARK  120  A    between atoms: _294  and  _295
REMARK  121  A    between atoms: _300  and  _301
REMARK  122  A    between atoms: _303  and  _305
REMARK  123  A    between atoms: _305  and  _306
REMARK  124  A    between atoms: _308  and  _310
REMARK  125  A    between atoms: _310  and  _311
REMARK  126  A    between atoms: _310  and  _313
REMARK  127  A    between atoms: _313  and  _314
REMARK  128  A    between atoms: _319  and  _320
REMARK  129  A    between atoms: _322  and  _324
REMARK  130  A    between atoms: _324  and  _325
REMARK  131  A    between atoms: _328  and  _330
REMARK  132  A    between atoms: _330  and  _331
REMARK  133  A    between atoms: _330  and  _333
REMARK  134  A    between atoms: _333  and  _334
REMARK  135  A    between atoms: _337  and  _339
REMARK  136  A    between atoms: _339  and  _340
REMARK  137  A    between atoms: _339  and  _342
REMARK  138  A    between atoms: _342  and  _343
REMARK  139  A    between atoms: _346  and  _348
REMARK  140  A    between atoms: _348  and  _349
REMARK  141  A    between atoms: _352  and  _354
REMARK  142  A    between atoms: _354  and  _355
REMARK  143  A    between atoms: _354  and  _357
REMARK  144  A    between atoms: _357  and  _358
REMARK  145  A    between atoms: _361  and  _363
REMARK  146  A    between atoms: _363  and  _364
REMARK  147  A    between atoms: _363  and  _366
REMARK  148  A    between atoms: _366  and  _367
REMARK  149  A    between atoms: _372  and  _374
REMARK  150  A    between atoms: _374  and  _375
REMARK  151  A    between atoms: _374  and  _377
REMARK  152  A    between atoms: _377  and  _378
REMARK  153  A    between atoms: _384  and  _386
REMARK  154  A    between atoms: _386  and  _387
REMARK  155  A    between atoms: _390  and  _392
REMARK  156  A    between atoms: _392  and  _393
REMARK  157  A    between atoms: _392  and  _395
REMARK  158  A    between atoms: _395  and  _396
REMARK  159  A    between atoms: _399  and  _401
REMARK  160  A    between atoms: _401  and  _402
REMARK  161  A    between atoms: _404  and  _406
REMARK  162  A    between atoms: _406  and  _407
REMARK  163  A    between atoms: _406  and  _409
REMARK  164  A    between atoms: _409  and  _410
REMARK  165  A    between atoms: _415  and  _417
REMARK  166  A    between atoms: _417  and  _418
REMARK  167  A    between atoms: _417  and  _420
REMARK  168  A    between atoms: _420  and  _421
REMARK  169  A    between atoms: _431  and  _433
REMARK  170  A    between atoms: _433  and  _434
REMARK  171  A    between atoms: _436  and  _438
REMARK  172  A    between atoms: _438  and  _439
REMARK  173  A    between atoms: _438  and  _441
REMARK  174  A    between atoms: _443  and  _445
REMARK  175  A    between atoms: _445  and  _446
REMARK  176  A    between atoms: _448  and  _450
REMARK  177  A    between atoms: _450  and  _451
REMARK  178  A    between atoms: _454  and  _456
REMARK  179  A    between atoms: _456  and  _457
REMARK  180  A    between atoms: _456  and  _459
REMARK  181  A    between atoms: _459  and  _460
REMARK  182  A    between atoms: _466  and  _468
REMARK  183  A    between atoms: _468  and  _469
REMARK  184  A    between atoms: _471  and  _473
REMARK  185  A    between atoms: _473  and  _474
REMARK  186  A    between atoms: _476  and  _478
REMARK  187  A    between atoms: _478  and  _479
REMARK  188  A    between atoms: _482  and  _484
REMARK  189  A    between atoms: _484  and  _485
REMARK  190  A    between atoms: _484  and  _487
REMARK  191  A    between atoms: _487  and  _488
REMARK  192  A    between atoms: _488  and  _489
REMARK  193  A    between atoms: _489  and  _490
REMARK  194  A    between atoms: _490  and  _491
REMARK  195  A    between atoms: _495  and  _497
REMARK  196  A    between atoms: _497  and  _498
REMARK  197  A    between atoms: _497  and  _500
REMARK  198  A    between atoms: _500  and  _501
REMARK  199  A    between atoms: _506  and  _507
REMARK  200  A    between atoms: _509  and  _511
REMARK  201  A    between atoms: _511  and  _512
REMARK  202  A    between atoms: _511  and  _514
REMARK  203  A    between atoms: _514  and  _515
REMARK  204  A    between atoms: _521  and  _523
REMARK  205  A    between atoms: _523  and  _524
REMARK  206  A    between atoms: _523  and  _526
REMARK  207  A    between atoms: _526  and  _527
REMARK  208  A    between atoms: _530  and  _532
REMARK  209  A    between atoms: _532  and  _533
REMARK  210  A    between atoms: _532  and  _535
REMARK  211  A    between atoms: _535  and  _536
REMARK  212  A    between atoms: _542  and  _544
REMARK  213  A    between atoms: _544  and  _545
REMARK  214  A    between atoms: _547  and  _549
REMARK  215  A    between atoms: _549  and  _550
REMARK  216  A    between atoms: _549  and  _552
REMARK  217  A    between atoms: _552  and  _553
REMARK  218  A    between atoms: _556  and  _558
REMARK  219  A    between atoms: _558  and  _559
REMARK  220  A    between atoms: _558  and  _561
REMARK  221  A    between atoms: _561  and  _562
REMARK                            x       y       z     vdW  Elec       q    Type
REMARK                         _______ _______ _______ _____ _____    ______ ____
ROOT
ATOM      1  O   HOH     1      33.638  -8.435  -0.804  0.00  0.00    +0.000 OA
ENDROOT
TORSDOF 0
REMARK  Name = ../refined-set-2016/4b1j/4b1j_pocket.pdb
REMARK  221 active torsions:
REMARK  status: ('A' for Active; 'I' for Inactive)
REMARK    1  A    between atoms: _1  and  _3
REMARK    2  A    between atoms: _3  and  _4
REMARK    3  A    between atoms: _3  and  _6
REMARK    4  A    between atoms: _6  and  _7
REMARK    5  A    between atoms: _7  and  _8
REMARK    6  A    between atoms: _11  and  _13
REMARK    7  A    between atoms: _13  and  _14
REMARK    8  A    between atoms: _16  and  _18
REMARK    9  A    between atoms: _18  and  _19
REMARK   10  A    between atoms: _18  and  _21
REMARK   11  A    between atoms: _21  and  _22
REMARK   12  A    between atoms: _25  and  _27
REMARK   13  A    between atoms: _27  and  _28
REMARK   14  A    between atoms: _27  and  _30
REMARK   15  A    between atoms: _30  and  _31
REMARK   16  A    between atoms: _34  and  _36
REMARK   17  A    between atoms: _36  and  _37
REMARK   18  A    between atoms: _36  and  _39
REMARK   19  A    between atoms: _39  and  _40
REMARK   20  A    between atoms: _40  and  _41
REMARK   21  A    between atoms: _44  and  _46
REMARK   22  A    between atoms: _46  and  _47
REMARK   23  A    between atoms: _46  and  _49
REMARK   24  A    between atoms: _49  and  _50
REMARK   25  A    between atoms: _50  and  _51
REMARK   26  A    between atoms: _54  and  _56
REMARK   27  A    between atoms: _56  and  _57
REMARK   28  A    between atoms: _56  and  _59
REMARK   29  A    between atoms: _59  and  _60
REMARK   30  A    between atoms: _65  and  _67
REMARK   31  A    between atoms: _67  and  _68
REMARK   32  A    between atoms: _67  and  _70
REMARK   33  A    between atoms: _73  and  _75
REMARK   34  A    between atoms: _75  and  _76
REMARK   35  A    between atoms: _75  and  _78
REMARK   36  A    between atoms: _78  and  _79
REMARK   37  A    between atoms: _82  and  _84
REMARK   38  A    between atoms: _84  and  _85
REMARK   39  A    between atoms: _84  and  _87
REMARK   40  A    between atoms: _87  and  _88
REMARK   41  A    between atoms: _94  and  _96
REMARK   42  A    between atoms: _96  and  _97
REMARK   43  A    between atoms: _100  and  _102
REMARK   44  A    between atoms: _102  and  _103
REMARK   45  A    between atoms: _102  and  _105
REMARK   46  A    between atoms: _105  and  _106
REMARK   47  A    between atoms: _111  and  _113
REMARK   48  A    between atoms: _113  and  _114
REMARK   49  A    between atoms: _113  and  _116
REMARK   50  A    between atoms: _116  and  _117
REMARK   51  A    between atoms: _117  and  _118
REMARK   52  A    between atoms: _118  and  _119
REMARK   53  A    between atoms: _128  and  _130
REMARK   54  A    between atoms: _130  and  _131
REMARK   55  A    between atoms: _130  and  _133
REMARK   56  A    between atoms: _133  and  _134
REMARK   57  A    between atoms: _140  and  _142
REMARK   58  A    between atoms: _142  and  _143
REMARK   59  A    between atoms: _142  and  _145
REMARK   60  A    between atoms: _148  and  _150
REMARK   61  A    between atoms: _150  and  _151
REMARK   62  A    between atoms: _153  and  _155
REMARK   63  A    between atoms: _155  and  _156
REMARK   64  A    between atoms: _158  and  _160
REMARK   65  A    between atoms: _160  and  _161
REMARK   66  A    between atoms: _163  and  _165
REMARK   67  A    between atoms: _165  and  _166
REMARK   68  A    between atoms: _165  and  _168
REMARK   69  A    between atoms: _171  and  _173
REMARK   70  A    between atoms: _173  and  _174
REMARK   71  A    between atoms: _176  and  _178
REMARK   72  A    between atoms: _178  and  _179
REMARK   73  A    between atoms: _178  and  _181
REMARK   74  A    between atoms: _181  and  _182
REMARK   75  A    between atoms: _185  and  _187
REMARK   76  A    between atoms: _187  and  _188
REMARK   77  A    between atoms: _187  and  _190
REMARK   78  A    between atoms: _193  and  _195
REMARK   79  A    between atoms: _195  and  _196
REMARK   80  A    between atoms: _195  and  _198
REMARK   81  A    between atoms: _198  and  _199
REMARK   82  A    between atoms: _199  and  _200
REMARK   83  A    between atoms: _205  and  _207
REMARK   84  A    between atoms: _207  and  _208
REMARK   85  A    between atoms: _207  and  _210
REMARK   86  A    between atoms: _210  and  _211
REMARK   87  A    between atoms: _211  and  _212
REMARK   88  A    between atoms: _215  and  _217
REMARK   89  A    between atoms: _217  and  _218
REMARK   90  A    between atoms: _217  and  _220
REMARK   91  A    between atoms: _220  and  _221
REMARK   92  A    between atoms: _221  and  _222
REMARK   93  A    between atoms: _225  and  _227
REMARK   94  A    between atoms: _227  and  _228
REMARK   95  A    between atoms: _227  and  _230
REMARK   96  A    between atoms: _230  and  _231
REMARK   97  A    between atoms: _234  and  _236
REMARK   98  A    between atoms: _236  and  _237
REMARK   99  A    between atoms: _236  and  _239
REMARK  100  A    between atoms: _239  and  _240
REMARK  101  A    between atoms: _240  and  _241
REMARK  102  A    between atoms: _241  and  _242
REMARK  103  A    between atoms: _251  and  _253
REMARK  104  A    between atoms: _253  and  _254
REMARK  105  A    between atoms: _253  and  _256
REMARK  106  A    between atoms: _256  and  _257
REMARK  107  A    between atoms: _263  and  _265
REMARK  108  A    between atoms: _265  and  _266
REMARK  109  A    between atoms: _265  and  _268
REMARK  110  A    between atoms: _268  and  _269
REMARK  111  A    between atoms: _272  and  _274
REMARK  112  A    between atoms: _274  and  _275
REMARK  113  A    between atoms: _274  and  _277
REMARK  114  A    between atoms: _277  and  _278
REMARK  115  A    between atoms: _278  and  _279
REMARK  116  A    between atoms: _279  and  _280
REMARK  117  A    between atoms: _289  and  _291
REMARK  118  A    between atoms: _291  and  _292
REMARK  119  A    between atoms: _291  and  _294
REMARK  120  A    between atoms: _294  and  _295
REMARK  121  A    between atoms: _300  and  _301
REMARK  122  A    between atoms: _303  and  _305
REMARK  123  A    between atoms: _305  and  _306
REMARK  124  A    between atoms: _308  and  _310
REMARK  125  A    between atoms: _310  and  _311
REMARK  126  A    between atoms: _310  and  _313
REMARK  127  A    between atoms: _313  and  _314
REMARK  128  A    between atoms: _319  and  _320
REMARK  129  A    between atoms: _322  and  _324
REMARK  130  A    between atoms: _324  and  _325
REMARK  131  A    between atoms: _328  and  _330
REMARK  132  A    between atoms: _330  and  _331
REMARK  133  A    between atoms: _330  and  _333
REMARK  134  A    between atoms: _333  and  _334
REMARK  135  A    between atoms: _337  and  _339
REMARK  136  A    between atoms: _339  and  _340
REMARK  137  A    between atoms: _339  and  _342
REMARK  138  A    between atoms: _342  and  _343
REMARK  139  A    between atoms: _346  and  _348
REMARK  140  A    between atoms: _348  and  _349
REMARK  141  A    between atoms: _352  and  _354
REMARK  142  A    between atoms: _354  and  _355
REMARK  143  A    between atoms: _354  and  _357
REMARK  144  A    between atoms: _357  and  _358
REMARK  145  A    between atoms: _361  and  _363
REMARK  146  A    between atoms: _363  and  _364
REMARK  147  A    between atoms: _363  and  _366
REMARK  148  A    between atoms: _366  and  _367
REMARK  149  A    between atoms: _372  and  _374
REMARK  150  A    between atoms: _374  and  _375
REMARK  151  A    between atoms: _374  and  _377
REMARK  152  A    between atoms: _377  and  _378
REMARK  153  A    between atoms: _384  and  _386
REMARK  154  A    between atoms: _386  and  _387
REMARK  155  A    between atoms: _390  and  _392
REMARK  156  A    between atoms: _392  and  _393
REMARK  157  A    between atoms: _392  and  _395
REMARK  158  A    between atoms: _395  and  _396
REMARK  159  A    between atoms: _399  and  _401
REMARK  160  A    between atoms: _401  and  _402
REMARK  161  A    between atoms: _404  and  _406
REMARK  162  A    between atoms: _406  and  _407
REMARK  163  A    between atoms: _406  and  _409
REMARK  164  A    between atoms: _409  and  _410
REMARK  165  A    between atoms: _415  and  _417
REMARK  166  A    between atoms: _417  and  _418
REMARK  167  A    between atoms: _417  and  _420
REMARK  168  A    between atoms: _420  and  _421
REMARK  169  A    between atoms: _431  and  _433
REMARK  170  A    between atoms: _433  and  _434
REMARK  171  A    between atoms: _436  and  _438
REMARK  172  A    between atoms: _438  and  _439
REMARK  173  A    between atoms: _438  and  _441
REMARK  174  A    between atoms: _443  and  _445
REMARK  175  A    between atoms: _445  and  _446
REMARK  176  A    between atoms: _448  and  _450
REMARK  177  A    between atoms: _450  and  _451
REMARK  178  A    between atoms: _454  and  _456
REMARK  179  A    between atoms: _456  and  _457
REMARK  180  A    between atoms: _456  and  _459
REMARK  181  A    between atoms: _459  and  _460
REMARK  182  A    between atoms: _466  and  _468
REMARK  183  A    between atoms: _468  and  _469
REMARK  184  A    between atoms: _471  and  _473
REMARK  185  A    between atoms: _473  and  _474
REMARK  186  A    between atoms: _476  and  _478
REMARK  187  A    between atoms: _478  and  _479
REMARK  188  A    between atoms: _482  and  _484
REMARK  189  A    between atoms: _484  and  _485
REMARK  190  A    between atoms: _484  and  _487
REMARK  191  A    between atoms: _487  and  _488
REMARK  192  A    between atoms: _488  and  _489
REMARK  193  A    between atoms: _489  and  _490
REMARK  194  A    between atoms: _490  and  _491
REMARK  195  A    between atoms: _495  and  _497
REMARK  196  A    between atoms: _497  and  _498
REMARK  197  A    between atoms: _497  and  _500
REMARK  198  A    between atoms: _500  and  _501
REMARK  199  A    between atoms: _506  and  _507
REMARK  200  A    between atoms: _509  and  _511
REMARK  201  A    between atoms: _511  and  _512
REMARK  202  A    between atoms: _511  and  _514
REMARK  203  A    between atoms: _514  and  _515
REMARK  204  A    between atoms: _521  and  _523
REMARK  205  A    between atoms: _523  and  _524
REMARK  206  A    between atoms: _523  and  _526
REMARK  207  A    between atoms: _526  and  _527
REMARK  208  A    between atoms: _530  and  _532
REMARK  209  A    between atoms: _532  and  _533
REMARK  210  A    between atoms: _532  and  _535
REMARK  211  A    between atoms: _535  and  _536
REMARK  212  A    between atoms: _542  and  _544
REMARK  213  A    between atoms: _544  and  _545
REMARK  214  A    between atoms: _547  and  _549
REMARK  215  A    between atoms: _549  and  _550
REMARK  216  A    between atoms: _549  and  _552
REMARK  217  A    between atoms: _552  and  _553
REMARK  218  A    between atoms: _556  and  _558
REMARK  219  A    between atoms: _558  and  _559
REMARK  220  A    between atoms: _558  and  _561
REMARK  221  A    between atoms: _561  and  _562
REMARK                            x       y       z     vdW  Elec       q    Type
REMARK                         _______ _______ _______ _____ _____    ______ ____
ROOT
ATOM      1  O   HOH     1      30.753   4.663   6.729  0.00  0.00    +0.000 OA
ENDROOT
TORSDOF 0
REMARK  Name = ../refined-set-2016/4b1j/4b1j_pocket.pdb
REMARK  221 active torsions:
REMARK  status: ('A' for Active; 'I' for Inactive)
REMARK    1  A    between atoms: _1  and  _3
REMARK    2  A    between atoms: _3  and  _4
REMARK    3  A    between atoms: _3  and  _6
REMARK    4  A    between atoms: _6  and  _7
REMARK    5  A    between atoms: _7  and  _8
REMARK    6  A    between atoms: _11  and  _13
REMARK    7  A    between atoms: _13  and  _14
REMARK    8  A    between atoms: _16  and  _18
REMARK    9  A    between atoms: _18  and  _19
REMARK   10  A    between atoms: _18  and  _21
REMARK   11  A    between atoms: _21  and  _22
REMARK   12  A    between atoms: _25  and  _27
REMARK   13  A    between atoms: _27  and  _28
REMARK   14  A    between atoms: _27  and  _30
REMARK   15  A    between atoms: _30  and  _31
REMARK   16  A    between atoms: _34  and  _36
REMARK   17  A    between atoms: _36  and  _37
REMARK   18  A    between atoms: _36  and  _39
REMARK   19  A    between atoms: _39  and  _40
REMARK   20  A    between atoms: _40  and  _41
REMARK   21  A    between atoms: _44  and  _46
REMARK   22  A    between atoms: _46  and  _47
REMARK   23  A    between atoms: _46  and  _49
REMARK   24  A    between atoms: _49  and  _50
REMARK   25  A    between atoms: _50  and  _51
REMARK   26  A    between atoms: _54  and  _56
REMARK   27  A    between atoms: _56  and  _57
REMARK   28  A    between atoms: _56  and  _59
REMARK   29  A    between atoms: _59  and  _60
REMARK   30  A    between atoms: _65  and  _67
REMARK   31  A    between atoms: _67  and  _68
REMARK   32  A    between atoms: _67  and  _70
REMARK   33  A    between atoms: _73  and  _75
REMARK   34  A    between atoms: _75  and  _76
REMARK   35  A    between atoms: _75  and  _78
REMARK   36  A    between atoms: _78  and  _79
REMARK   37  A    between atoms: _82  and  _84
REMARK   38  A    between atoms: _84  and  _85
REMARK   39  A    between atoms: _84  and  _87
REMARK   40  A    between atoms: _87  and  _88
REMARK   41  A    between atoms: _94  and  _96
REMARK   42  A    between atoms: _96  and  _97
REMARK   43  A    between atoms: _100  and  _102
REMARK   44  A    between atoms: _102  and  _103
REMARK   45  A    between atoms: _102  and  _105
REMARK   46  A    between atoms: _105  and  _106
REMARK   47  A    between atoms: _111  and  _113
REMARK   48  A    between atoms: _113  and  _114
REMARK   49  A    between atoms: _113  and  _116
REMARK   50  A    between atoms: _116  and  _117
REMARK   51  A    between atoms: _117  and  _118
REMARK   52  A    between atoms: _118  and  _119
REMARK   53  A    between atoms: _128  and  _130
REMARK   54  A    between atoms: _130  and  _131
REMARK   55  A    between atoms: _130  and  _133
REMARK   56  A    between atoms: _133  and  _134
REMARK   57  A    between atoms: _140  and  _142
REMARK   58  A    between atoms: _142  and  _143
REMARK   59  A    between atoms: _142  and  _145
REMARK   60  A    between atoms: _148  and  _150
REMARK   61  A    between atoms: _150  and  _151
REMARK   62  A    between atoms: _153  and  _155
REMARK   63  A    between atoms: _155  and  _156
REMARK   64  A    between atoms: _158  and  _160
REMARK   65  A    between atoms: _160  and  _161
REMARK   66  A    between atoms: _163  and  _165
REMARK   67  A    between atoms: _165  and  _166
REMARK   68  A    between atoms: _165  and  _168
REMARK   69  A    between atoms: _171  and  _173
REMARK   70  A    between atoms: _173  and  _174
REMARK   71  A    between atoms: _176  and  _178
REMARK   72  A    between atoms: _178  and  _179
REMARK   73  A    between atoms: _178  and  _181
REMARK   74  A    between atoms: _181  and  _182
REMARK   75  A    between atoms: _185  and  _187
REMARK   76  A    between atoms: _187  and  _188
REMARK   77  A    between atoms: _187  and  _190
REMARK   78  A    between atoms: _193  and  _195
REMARK   79  A    between atoms: _195  and  _196
REMARK   80  A    between atoms: _195  and  _198
REMARK   81  A    between atoms: _198  and  _199
REMARK   82  A    between atoms: _199  and  _200
REMARK   83  A    between atoms: _205  and  _207
REMARK   84  A    between atoms: _207  and  _208
REMARK   85  A    between atoms: _207  and  _210
REMARK   86  A    between atoms: _210  and  _211
REMARK   87  A    between atoms: _211  and  _212
REMARK   88  A    between atoms: _215  and  _217
REMARK   89  A    between atoms: _217  and  _218
REMARK   90  A    between atoms: _217  and  _220
REMARK   91  A    between atoms: _220  and  _221
REMARK   92  A    between atoms: _221  and  _222
REMARK   93  A    between atoms: _225  and  _227
REMARK   94  A    between atoms: _227  and  _228
REMARK   95  A    between atoms: _227  and  _230
REMARK   96  A    between atoms: _230  and  _231
REMARK   97  A    between atoms: _234  and  _236
REMARK   98  A    between atoms: _236  and  _237
REMARK   99  A    between atoms: _236  and  _239
REMARK  100  A    between atoms: _239  and  _240
REMARK  101  A    between atoms: _240  and  _241
REMARK  102  A    between atoms: _241  and  _242
REMARK  103  A    between atoms: _251  and  _253
REMARK  104  A    between atoms: _253  and  _254
REMARK  105  A    between atoms: _253  and  _256
REMARK  106  A    between atoms: _256  and  _257
REMARK  107  A    between atoms: _263  and  _265
REMARK  108  A    between atoms: _265  and  _266
REMARK  109  A    between atoms: _265  and  _268
REMARK  110  A    between atoms: _268  and  _269
REMARK  111  A    between atoms: _272  and  _274
REMARK  112  A    between atoms: _274  and  _275
REMARK  113  A    between atoms: _274  and  _277
REMARK  114  A    between atoms: _277  and  _278
REMARK  115  A    between atoms: _278  and  _279
REMARK  116  A    between atoms: _279  and  _280
REMARK  117  A    between atoms: _289  and  _291
REMARK  118  A    between atoms: _291  and  _292
REMARK  119  A    between atoms: _291  and  _294
REMARK  120  A    between atoms: _294  and  _295
REMARK  121  A    between atoms: _300  and  _301
REMARK  122  A    between atoms: _303  and  _305
REMARK  123  A    between atoms: _305  and  _306
REMARK  124  A    between atoms: _308  and  _310
REMARK  125  A    between atoms: _310  and  _311
REMARK  126  A    between atoms: _310  and  _313
REMARK  127  A    between atoms: _313  and  _314
REMARK  128  A    between atoms: _319  and  _320
REMARK  129  A    between atoms: _322  and  _324
REMARK  130  A    between atoms: _324  and  _325
REMARK  131  A    between atoms: _328  and  _330
REMARK  132  A    between atoms: _330  and  _331
REMARK  133  A    between atoms: _330  and  _333
REMARK  134  A    between atoms: _333  and  _334
REMARK  135  A    between atoms: _337  and  _339
REMARK  136  A    between atoms: _339  and  _340
REMARK  137  A    between atoms: _339  and  _342
REMARK  138  A    between atoms: _342  and  _343
REMARK  139  A    between atoms: _346  and  _348
REMARK  140  A    between atoms: _348  and  _349
REMARK  141  A    between atoms: _352  and  _354
REMARK  142  A    between atoms: _354  and  _355
REMARK  143  A    between atoms: _354  and  _357
REMARK  144  A    between atoms: _357  and  _358
REMARK  145  A    between atoms: _361  and  _363
REMARK  146  A    between atoms: _363  and  _364
REMARK  147  A    between atoms: _363  and  _366
REMARK  148  A    between atoms: _366  and  _367
REMARK  149  A    between atoms: _372  and  _374
REMARK  150  A    between atoms: _374  and  _375
REMARK  151  A    between atoms: _374  and  _377
REMARK  152  A    between atoms: _377  and  _378
REMARK  153  A    between atoms: _384  and  _386
REMARK  154  A    between atoms: _386  and  _387
REMARK  155  A    between atoms: _390  and  _392
REMARK  156  A    between atoms: _392  and  _393
REMARK  157  A    between atoms: _392  and  _395
REMARK  158  A    between atoms: _395  and  _396
REMARK  159  A    between atoms: _399  and  _401
REMARK  160  A    between atoms: _401  and  _402
REMARK  161  A    between atoms: _404  and  _406
REMARK  162  A    between atoms: _406  and  _407
REMARK  163  A    between atoms: _406  and  _409
REMARK  164  A    between atoms: _409  and  _410
REMARK  165  A    between atoms: _415  and  _417
REMARK  166  A    between atoms: _417  and  _418
REMARK  167  A    between atoms: _417  and  _420
REMARK  168  A    between atoms: _420  and  _421
REMARK  169  A    between atoms: _431  and  _433
REMARK  170  A    between atoms: _433  and  _434
REMARK  171  A    between atoms: _436  and  _438
REMARK  172  A    between atoms: _438  and  _439
REMARK  173  A    between atoms: _438  and  _441
REMARK  174  A    between atoms: _443  and  _445
REMARK  175  A    between atoms: _445  and  _446
REMARK  176  A    between atoms: _448  and  _450
REMARK  177  A    between atoms: _450  and  _451
REMARK  178  A    between atoms: _454  and  _456
REMARK  179  A    between atoms: _456  and  _457
REMARK  180  A    between atoms: _456  and  _459
REMARK  181  A    between atoms: _459  and  _460
REMARK  182  A    between atoms: _466  and  _468
REMARK  183  A    between atoms: _468  and  _469
REMARK  184  A    between atoms: _471  and  _473
REMARK  185  A    between atoms: _473  and  _474
REMARK  186  A    between atoms: _476  and  _478
REMARK  187  A    between atoms: _478  and  _479
REMARK  188  A    between atoms: _482  and  _484
REMARK  189  A    between atoms: _484  and  _485
REMARK  190  A    between atoms: _484  and  _487
REMARK  191  A    between atoms: _487  and  _488
REMARK  192  A    between atoms: _488  and  _489
REMARK  193  A    between atoms: _489  and  _490
REMARK  194  A    between atoms: _490  and  _491
REMARK  195  A    between atoms: _495  and  _497
REMARK  196  A    between atoms: _497  and  _498
REMARK  197  A    between atoms: _497  and  _500
REMARK  198  A    between atoms: _500  and  _501
REMARK  199  A    between atoms: _506  and  _507
REMARK  200  A    between atoms: _509  and  _511
REMARK  201  A    between atoms: _511  and  _512
REMARK  202  A    between atoms: _511  and  _514
REMARK  203  A    between atoms: _514  and  _515
REMARK  204  A    between atoms: _521  and  _523
REMARK  205  A    between atoms: _523  and  _524
REMARK  206  A    between atoms: _523  and  _526
REMARK  207  A    between atoms: _526  and  _527
REMARK  208  A    between atoms: _530  and  _532
REMARK  209  A    between atoms: _532  and  _533
REMARK  210  A    between atoms: _532  and  _535
REMARK  211  A    between atoms: _535  and  _536
REMARK  212  A    between atoms: _542  and  _544
REMARK  213  A    between atoms: _544  and  _545
REMARK  214  A    between atoms: _547  and  _549
REMARK  215  A    between atoms: _549  and  _550
REMARK  216  A    between atoms: _549  and  _552
REMARK  217  A    between atoms: _552  and  _553
REMARK  218  A    between atoms: _556  and  _558
REMARK  219  A    between atoms: _558  and  _559
REMARK  220  A    between atoms: _558  and  _561
REMARK  221  A    between atoms: _561  and  _562
REMARK                            x       y       z     vdW  Elec       q    Type
REMARK                         _______ _______ _______ _____ _____    ______ ____
ROOT
ATOM      1  O   HOH     1      31.135   6.206  10.844  0.00  0.00    +0.000 OA
ENDROOT
TORSDOF 0
REMARK  Name = ../refined-set-2016/4b1j/4b1j_pocket.pdb
REMARK  221 active torsions:
REMARK  status: ('A' for Active; 'I' for Inactive)
REMARK    1  A    between atoms: _1  and  _3
REMARK    2  A    between atoms: _3  and  _4
REMARK    3  A    between atoms: _3  and  _6
REMARK    4  A    between atoms: _6  and  _7
REMARK    5  A    between atoms: _7  and  _8
REMARK    6  A    between atoms: _11  and  _13
REMARK    7  A    between atoms: _13  and  _14
REMARK    8  A    between atoms: _16  and  _18
REMARK    9  A    between atoms: _18  and  _19
REMARK   10  A    between atoms: _18  and  _21
REMARK   11  A    between atoms: _21  and  _22
REMARK   12  A    between atoms: _25  and  _27
REMARK   13  A    between atoms: _27  and  _28
REMARK   14  A    between atoms: _27  and  _30
REMARK   15  A    between atoms: _30  and  _31
REMARK   16  A    between atoms: _34  and  _36
REMARK   17  A    between atoms: _36  and  _37
REMARK   18  A    between atoms: _36  and  _39
REMARK   19  A    between atoms: _39  and  _40
REMARK   20  A    between atoms: _40  and  _41
REMARK   21  A    between atoms: _44  and  _46
REMARK   22  A    between atoms: _46  and  _47
REMARK   23  A    between atoms: _46  and  _49
REMARK   24  A    between atoms: _49  and  _50
REMARK   25  A    between atoms: _50  and  _51
REMARK   26  A    between atoms: _54  and  _56
REMARK   27  A    between atoms: _56  and  _57
REMARK   28  A    between atoms: _56  and  _59
REMARK   29  A    between atoms: _59  and  _60
REMARK   30  A    between atoms: _65  and  _67
REMARK   31  A    between atoms: _67  and  _68
REMARK   32  A    between atoms: _67  and  _70
REMARK   33  A    between atoms: _73  and  _75
REMARK   34  A    between atoms: _75  and  _76
REMARK   35  A    between atoms: _75  and  _78
REMARK   36  A    between atoms: _78  and  _79
REMARK   37  A    between atoms: _82  and  _84
REMARK   38  A    between atoms: _84  and  _85
REMARK   39  A    between atoms: _84  and  _87
REMARK   40  A    between atoms: _87  and  _88
REMARK   41  A    between atoms: _94  and  _96
REMARK   42  A    between atoms: _96  and  _97
REMARK   43  A    between atoms: _100  and  _102
REMARK   44  A    between atoms: _102  and  _103
REMARK   45  A    between atoms: _102  and  _105
REMARK   46  A    between atoms: _105  and  _106
REMARK   47  A    between atoms: _111  and  _113
REMARK   48  A    between atoms: _113  and  _114
REMARK   49  A    between atoms: _113  and  _116
REMARK   50  A    between atoms: _116  and  _117
REMARK   51  A    between atoms: _117  and  _118
REMARK   52  A    between atoms: _118  and  _119
REMARK   53  A    between atoms: _128  and  _130
REMARK   54  A    between atoms: _130  and  _131
REMARK   55  A    between atoms: _130  and  _133
REMARK   56  A    between atoms: _133  and  _134
REMARK   57  A    between atoms: _140  and  _142
REMARK   58  A    between atoms: _142  and  _143
REMARK   59  A    between atoms: _142  and  _145
REMARK   60  A    between atoms: _148  and  _150
REMARK   61  A    between atoms: _150  and  _151
REMARK   62  A    between atoms: _153  and  _155
REMARK   63  A    between atoms: _155  and  _156
REMARK   64  A    between atoms: _158  and  _160
REMARK   65  A    between atoms: _160  and  _161
REMARK   66  A    between atoms: _163  and  _165
REMARK   67  A    between atoms: _165  and  _166
REMARK   68  A    between atoms: _165  and  _168
REMARK   69  A    between atoms: _171  and  _173
REMARK   70  A    between atoms: _173  and  _174
REMARK   71  A    between atoms: _176  and  _178
REMARK   72  A    between atoms: _178  and  _179
REMARK   73  A    between atoms: _178  and  _181
REMARK   74  A    between atoms: _181  and  _182
REMARK   75  A    between atoms: _185  and  _187
REMARK   76  A    between atoms: _187  and  _188
REMARK   77  A    between atoms: _187  and  _190
REMARK   78  A    between atoms: _193  and  _195
REMARK   79  A    between atoms: _195  and  _196
REMARK   80  A    between atoms: _195  and  _198
REMARK   81  A    between atoms: _198  and  _199
REMARK   82  A    between atoms: _199  and  _200
REMARK   83  A    between atoms: _205  and  _207
REMARK   84  A    between atoms: _207  and  _208
REMARK   85  A    between atoms: _207  and  _210
REMARK   86  A    between atoms: _210  and  _211
REMARK   87  A    between atoms: _211  and  _212
REMARK   88  A    between atoms: _215  and  _217
REMARK   89  A    between atoms: _217  and  _218
REMARK   90  A    between atoms: _217  and  _220
REMARK   91  A    between atoms: _220  and  _221
REMARK   92  A    between atoms: _221  and  _222
REMARK   93  A    between atoms: _225  and  _227
REMARK   94  A    between atoms: _227  and  _228
REMARK   95  A    between atoms: _227  and  _230
REMARK   96  A    between atoms: _230  and  _231
REMARK   97  A    between atoms: _234  and  _236
REMARK   98  A    between atoms: _236  and  _237
REMARK   99  A    between atoms: _236  and  _239
REMARK  100  A    between atoms: _239  and  _240
REMARK  101  A    between atoms: _240  and  _241
REMARK  102  A    between atoms: _241  and  _242
REMARK  103  A    between atoms: _251  and  _253
REMARK  104  A    between atoms: _253  and  _254
REMARK  105  A    between atoms: _253  and  _256
REMARK  106  A    between atoms: _256  and  _257
REMARK  107  A    between atoms: _263  and  _265
REMARK  108  A    between atoms: _265  and  _266
REMARK  109  A    between atoms: _265  and  _268
REMARK  110  A    between atoms: _268  and  _269
REMARK  111  A    between atoms: _272  and  _274
REMARK  112  A    between atoms: _274  and  _275
REMARK  113  A    between atoms: _274  and  _277
REMARK  114  A    between atoms: _277  and  _278
REMARK  115  A    between atoms: _278  and  _279
REMARK  116  A    between atoms: _279  and  _280
REMARK  117  A    between atoms: _289  and  _291
REMARK  118  A    between atoms: _291  and  _292
REMARK  119  A    between atoms: _291  and  _294
REMARK  120  A    between atoms: _294  and  _295
REMARK  121  A    between atoms: _300  and  _301
REMARK  122  A    between atoms: _303  and  _305
REMARK  123  A    between atoms: _305  and  _306
REMARK  124  A    between atoms: _308  and  _310
REMARK  125  A    between atoms: _310  and  _311
REMARK  126  A    between atoms: _310  and  _313
REMARK  127  A    between atoms: _313  and  _314
REMARK  128  A    between atoms: _319  and  _320
REMARK  129  A    between atoms: _322  and  _324
REMARK  130  A    between atoms: _324  and  _325
REMARK  131  A    between atoms: _328  and  _330
REMARK  132  A    between atoms: _330  and  _331
REMARK  133  A    between atoms: _330  and  _333
REMARK  134  A    between atoms: _333  and  _334
REMARK  135  A    between atoms: _337  and  _339
REMARK  136  A    between atoms: _339  and  _340
REMARK  137  A    between atoms: _339  and  _342
REMARK  138  A    between atoms: _342  and  _343
REMARK  139  A    between atoms: _346  and  _348
REMARK  140  A    between atoms: _348  and  _349
REMARK  141  A    between atoms: _352  and  _354
REMARK  142  A    between atoms: _354  and  _355
REMARK  143  A    between atoms: _354  and  _357
REMARK  144  A    between atoms: _357  and  _358
REMARK  145  A    between atoms: _361  and  _363
REMARK  146  A    between atoms: _363  and  _364
REMARK  147  A    between atoms: _363  and  _366
REMARK  148  A    between atoms: _366  and  _367
REMARK  149  A    between atoms: _372  and  _374
REMARK  150  A    between atoms: _374  and  _375
REMARK  151  A    between atoms: _374  and  _377
REMARK  152  A    between atoms: _377  and  _378
REMARK  153  A    between atoms: _384  and  _386
REMARK  154  A    between atoms: _386  and  _387
REMARK  155  A    between atoms: _390  and  _392
REMARK  156  A    between atoms: _392  and  _393
REMARK  157  A    between atoms: _392  and  _395
REMARK  158  A    between atoms: _395  and  _396
REMARK  159  A    between atoms: _399  and  _401
REMARK  160  A    between atoms: _401  and  _402
REMARK  161  A    between atoms: _404  and  _406
REMARK  162  A    between atoms: _406  and  _407
REMARK  163  A    between atoms: _406  and  _409
REMARK  164  A    between atoms: _409  and  _410
REMARK  165  A    between atoms: _415  and  _417
REMARK  166  A    between atoms: _417  and  _418
REMARK  167  A    between atoms: _417  and  _420
REMARK  168  A    between atoms: _420  and  _421
REMARK  169  A    between atoms: _431  and  _433
REMARK  170  A    between atoms: _433  and  _434
REMARK  171  A    between atoms: _436  and  _438
REMARK  172  A    between atoms: _438  and  _439
REMARK  173  A    between atoms: _438  and  _441
REMARK  174  A    between atoms: _443  and  _445
REMARK  175  A    between atoms: _445  and  _446
REMARK  176  A    between atoms: _448  and  _450
REMARK  177  A    between atoms: _450  and  _451
REMARK  178  A    between atoms: _454  and  _456
REMARK  179  A    between atoms: _456  and  _457
REMARK  180  A    between atoms: _456  and  _459
REMARK  181  A    between atoms: _459  and  _460
REMARK  182  A    between atoms: _466  and  _468
REMARK  183  A    between atoms: _468  and  _469
REMARK  184  A    between atoms: _471  and  _473
REMARK  185  A    between atoms: _473  and  _474
REMARK  186  A    between atoms: _476  and  _478
REMARK  187  A    between atoms: _478  and  _479
REMARK  188  A    between atoms: _482  and  _484
REMARK  189  A    between atoms: _484  and  _485
REMARK  190  A    between atoms: _484  and  _487
REMARK  191  A    between atoms: _487  and  _488
REMARK  192  A    between atoms: _488  and  _489
REMARK  193  A    between atoms: _489  and  _490
REMARK  194  A    between atoms: _490  and  _491
REMARK  195  A    between atoms: _495  and  _497
REMARK  196  A    between atoms: _497  and  _498
REMARK  197  A    between atoms: _497  and  _500
REMARK  198  A    between atoms: _500  and  _501
REMARK  199  A    between atoms: _506  and  _507
REMARK  200  A    between atoms: _509  and  _511
REMARK  201  A    between atoms: _511  and  _512
REMARK  202  A    between atoms: _511  and  _514
REMARK  203  A    between atoms: _514  and  _515
REMARK  204  A    between atoms: _521  and  _523
REMARK  205  A    between atoms: _523  and  _524
REMARK  206  A    between atoms: _523  and  _526
REMARK  207  A    between atoms: _526  and  _527
REMARK  208  A    between atoms: _530  and  _532
REMARK  209  A    between atoms: _532  and  _533
REMARK  210  A    between atoms: _532  and  _535
REMARK  211  A    between atoms: _535  and  _536
REMARK  212  A    between atoms: _542  and  _544
REMARK  213  A    between atoms: _544  and  _545
REMARK  214  A    between atoms: _547  and  _549
REMARK  215  A    between atoms: _549  and  _550
REMARK  216  A    between atoms: _549  and  _552
REMARK  217  A    between atoms: _552  and  _553
REMARK  218  A    between atoms: _556  and  _558
REMARK  219  A    between atoms: _558  and  _559
REMARK  220  A    between atoms: _558  and  _561
REMARK  221  A    between atoms: _561  and  _562
REMARK                            x       y       z     vdW  Elec       q    Type
REMARK                         _______ _______ _______ _____ _____    ______ ____
ROOT
ATOM      1  O   HOH     1      32.539  -4.221  -2.182  0.00  0.00    +0.000 OA
ENDROOT
TORSDOF 0
