REMARK  Name = ../refined-set-2016/3ekw/3ekw_pocket.pdb
REMARK  228 active torsions:
REMARK  status: ('A' for Active; 'I' for Inactive)
REMARK    1  A    between atoms: _1  and  _3
REMARK    2  A    between atoms: _3  and  _4
REMARK    3  A    between atoms: _3  and  _6
REMARK    4  A    between atoms: _6  and  _7
REMARK    5  A    between atoms: _7  and  _8
REMARK    6  A    between atoms: _8  and  _9
REMARK    7  A    between atoms: _18  and  _20
REMARK    8  A    between atoms: _20  and  _21
REMARK    9  A    between atoms: _20  and  _23
REMARK   10  A    between atoms: _23  and  _24
REMARK   11  A    between atoms: _27  and  _29
REMARK   12  A    between atoms: _29  and  _30
REMARK   13  A    between atoms: _29  and  _32
REMARK   14  A    between atoms: _32  and  _33
REMARK   15  A    between atoms: _36  and  _38
REMARK   16  A    between atoms: _38  and  _39
REMARK   17  A    between atoms: _38  and  _41
REMARK   18  A    between atoms: _41  and  _42
REMARK   19  A    between atoms: _45  and  _47
REMARK   20  A    between atoms: _47  and  _48
REMARK   21  A    between atoms: _47  and  _50
REMARK   22  A    between atoms: _50  and  _51
REMARK   23  A    between atoms: _54  and  _56
REMARK   24  A    between atoms: _56  and  _57
REMARK   25  A    between atoms: _59  and  _61
REMARK   26  A    between atoms: _61  and  _62
REMARK   27  A    between atoms: _65  and  _67
REMARK   28  A    between atoms: _67  and  _68
REMARK   29  A    between atoms: _67  and  _70
REMARK   30  A    between atoms: _70  and  _71
REMARK   31  A    between atoms: _74  and  _76
REMARK   32  A    between atoms: _76  and  _77
REMARK   33  A    between atoms: _76  and  _79
REMARK   34  A    between atoms: _79  and  _80
REMARK   35  A    between atoms: _83  and  _85
REMARK   36  A    between atoms: _85  and  _86
REMARK   37  A    between atoms: _85  and  _88
REMARK   38  A    between atoms: _88  and  _89
REMARK   39  A    between atoms: _92  and  _94
REMARK   40  A    between atoms: _94  and  _95
REMARK   41  A    between atoms: _94  and  _97
REMARK   42  A    between atoms: _100  and  _102
REMARK   43  A    between atoms: _102  and  _103
REMARK   44  A    between atoms: _102  and  _105
REMARK   45  A    between atoms: _105  and  _106
REMARK   46  A    between atoms: _106  and  _107
REMARK   47  A    between atoms: _107  and  _108
REMARK   48  A    between atoms: _108  and  _109
REMARK   49  A    between atoms: _113  and  _115
REMARK   50  A    between atoms: _115  and  _116
REMARK   51  A    between atoms: _115  and  _118
REMARK   52  A    between atoms: _118  and  _119
REMARK   53  A    between atoms: _119  and  _120
REMARK   54  A    between atoms: _122  and  _124
REMARK   55  A    between atoms: _124  and  _125
REMARK   56  A    between atoms: _124  and  _127
REMARK   57  A    between atoms: _127  and  _128
REMARK   58  A    between atoms: _131  and  _133
REMARK   59  A    between atoms: _133  and  _134
REMARK   60  A    between atoms: _133  and  _136
REMARK   61  A    between atoms: _139  and  _141
REMARK   62  A    between atoms: _141  and  _142
REMARK   63  A    between atoms: _144  and  _146
REMARK   64  A    between atoms: _146  and  _147
REMARK   65  A    between atoms: _146  and  _149
REMARK   66  A    between atoms: _149  and  _150
REMARK   67  A    between atoms: _153  and  _155
REMARK   68  A    between atoms: _155  and  _156
REMARK   69  A    between atoms: _158  and  _160
REMARK   70  A    between atoms: _160  and  _161
REMARK   71  A    between atoms: _163  and  _165
REMARK   72  A    between atoms: _165  and  _166
REMARK   73  A    between atoms: _165  and  _168
REMARK   74  A    between atoms: _171  and  _173
REMARK   75  A    between atoms: _173  and  _174
REMARK   76  A    between atoms: _173  and  _176
REMARK   77  A    between atoms: _179  and  _181
REMARK   78  A    between atoms: _181  and  _182
REMARK   79  A    between atoms: _181  and  _184
REMARK   80  A    between atoms: _184  and  _185
REMARK   81  A    between atoms: _188  and  _190
REMARK   82  A    between atoms: _190  and  _191
REMARK   83  A    between atoms: _190  and  _193
REMARK   84  A    between atoms: _193  and  _194
REMARK   85  A    between atoms: _198  and  _199
REMARK   86  A    between atoms: _204  and  _206
REMARK   87  A    between atoms: _206  and  _207
REMARK   88  A    between atoms: _210  and  _212
REMARK   89  A    between atoms: _212  and  _213
REMARK   90  A    between atoms: _212  and  _215
REMARK   91  A    between atoms: _215  and  _216
REMARK   92  A    between atoms: _221  and  _223
REMARK   93  A    between atoms: _223  and  _224
REMARK   94  A    between atoms: _223  and  _226
REMARK   95  A    between atoms: _226  and  _227
REMARK   96  A    between atoms: _230  and  _232
REMARK   97  A    between atoms: _232  and  _233
REMARK   98  A    between atoms: _232  and  _235
REMARK   99  A    between atoms: _235  and  _236
REMARK  100  A    between atoms: _239  and  _241
REMARK  101  A    between atoms: _241  and  _242
REMARK  102  A    between atoms: _244  and  _246
REMARK  103  A    between atoms: _246  and  _247
REMARK  104  A    between atoms: _246  and  _249
REMARK  105  A    between atoms: _249  and  _250
REMARK  106  A    between atoms: _250  and  _251
REMARK  107  A    between atoms: _251  and  _252
REMARK  108  A    between atoms: _261  and  _263
REMARK  109  A    between atoms: _263  and  _264
REMARK  110  A    between atoms: _263  and  _266
REMARK  111  A    between atoms: _266  and  _267
REMARK  112  A    between atoms: _267  and  _268
REMARK  113  A    between atoms: _268  and  _269
REMARK  114  A    between atoms: _278  and  _280
REMARK  115  A    between atoms: _280  and  _281
REMARK  116  A    between atoms: _280  and  _283
REMARK  117  A    between atoms: _283  and  _284
REMARK  118  A    between atoms: _287  and  _289
REMARK  119  A    between atoms: _289  and  _290
REMARK  120  A    between atoms: _289  and  _292
REMARK  121  A    between atoms: _292  and  _293
REMARK  122  A    between atoms: _296  and  _298
REMARK  123  A    between atoms: _298  and  _299
REMARK  124  A    between atoms: _298  and  _301
REMARK  125  A    between atoms: _301  and  _302
REMARK  126  A    between atoms: _305  and  _307
REMARK  127  A    between atoms: _307  and  _308
REMARK  128  A    between atoms: _307  and  _310
REMARK  129  A    between atoms: _310  and  _311
REMARK  130  A    between atoms: _314  and  _316
REMARK  131  A    between atoms: _316  and  _317
REMARK  132  A    between atoms: _316  and  _319
REMARK  133  A    between atoms: _319  and  _320
REMARK  134  A    between atoms: _323  and  _325
REMARK  135  A    between atoms: _325  and  _326
REMARK  136  A    between atoms: _328  and  _330
REMARK  137  A    between atoms: _330  and  _331
REMARK  138  A    between atoms: _334  and  _336
REMARK  139  A    between atoms: _336  and  _337
REMARK  140  A    between atoms: _336  and  _339
REMARK  141  A    between atoms: _339  and  _340
REMARK  142  A    between atoms: _343  and  _345
REMARK  143  A    between atoms: _345  and  _346
REMARK  144  A    between atoms: _345  and  _348
REMARK  145  A    between atoms: _348  and  _349
REMARK  146  A    between atoms: _352  and  _354
REMARK  147  A    between atoms: _354  and  _355
REMARK  148  A    between atoms: _354  and  _357
REMARK  149  A    between atoms: _357  and  _358
REMARK  150  A    between atoms: _361  and  _363
REMARK  151  A    between atoms: _363  and  _364
REMARK  152  A    between atoms: _363  and  _366
REMARK  153  A    between atoms: _369  and  _371
REMARK  154  A    between atoms: _371  and  _372
REMARK  155  A    between atoms: _371  and  _374
REMARK  156  A    between atoms: _374  and  _375
REMARK  157  A    between atoms: _375  and  _376
REMARK  158  A    between atoms: _379  and  _381
REMARK  159  A    between atoms: _381  and  _382
REMARK  160  A    between atoms: _381  and  _384
REMARK  161  A    between atoms: _384  and  _385
REMARK  162  A    between atoms: _385  and  _386
REMARK  163  A    between atoms: _386  and  _387
REMARK  164  A    between atoms: _387  and  _388
REMARK  165  A    between atoms: _392  and  _394
REMARK  166  A    between atoms: _394  and  _395
REMARK  167  A    between atoms: _394  and  _397
REMARK  168  A    between atoms: _397  and  _398
REMARK  169  A    between atoms: _398  and  _399
REMARK  170  A    between atoms: _401  and  _403
REMARK  171  A    between atoms: _403  and  _404
REMARK  172  A    between atoms: _403  and  _406
REMARK  173  A    between atoms: _406  and  _407
REMARK  174  A    between atoms: _410  and  _412
REMARK  175  A    between atoms: _412  and  _413
REMARK  176  A    between atoms: _412  and  _415
REMARK  177  A    between atoms: _418  and  _420
REMARK  178  A    between atoms: _420  and  _421
REMARK  179  A    between atoms: _423  and  _425
REMARK  180  A    between atoms: _425  and  _426
REMARK  181  A    between atoms: _425  and  _428
REMARK  182  A    between atoms: _428  and  _429
REMARK  183  A    between atoms: _432  and  _434
REMARK  184  A    between atoms: _434  and  _435
REMARK  185  A    between atoms: _437  and  _439
REMARK  186  A    between atoms: _439  and  _440
REMARK  187  A    between atoms: _442  and  _444
REMARK  188  A    between atoms: _444  and  _445
REMARK  189  A    between atoms: _444  and  _447
REMARK  190  A    between atoms: _447  and  _448
REMARK  191  A    between atoms: _454  and  _456
REMARK  192  A    between atoms: _456  and  _457
REMARK  193  A    between atoms: _456  and  _459
REMARK  194  A    between atoms: _462  and  _464
REMARK  195  A    between atoms: _464  and  _465
REMARK  196  A    between atoms: _464  and  _467
REMARK  197  A    between atoms: _470  and  _472
REMARK  198  A    between atoms: _472  and  _473
REMARK  199  A    between atoms: _472  and  _475
REMARK  200  A    between atoms: _475  and  _476
REMARK  201  A    between atoms: _480  and  _481
REMARK  202  A    between atoms: _486  and  _488
REMARK  203  A    between atoms: _488  and  _489
REMARK  204  A    between atoms: _488  and  _491
REMARK  205  A    between atoms: _491  and  _492
REMARK  206  A    between atoms: _496  and  _497
REMARK  207  A    between atoms: _502  and  _504
REMARK  208  A    between atoms: _504  and  _505
REMARK  209  A    between atoms: _508  and  _510
REMARK  210  A    between atoms: _510  and  _511
REMARK  211  A    between atoms: _510  and  _513
REMARK  212  A    between atoms: _513  and  _514
REMARK  213  A    between atoms: _519  and  _521
REMARK  214  A    between atoms: _521  and  _522
REMARK  215  A    between atoms: _521  and  _524
REMARK  216  A    between atoms: _524  and  _525
REMARK  217  A    between atoms: _528  and  _530
REMARK  218  A    between atoms: _530  and  _531
REMARK  219  A    between atoms: _530  and  _533
REMARK  220  A    between atoms: _533  and  _534
REMARK  221  A    between atoms: _537  and  _539
REMARK  222  A    between atoms: _539  and  _540
REMARK  223  A    between atoms: _542  and  _544
REMARK  224  A    between atoms: _544  and  _545
REMARK  225  A    between atoms: _544  and  _547
REMARK  226  A    between atoms: _547  and  _548
REMARK  227  A    between atoms: _548  and  _549
REMARK  228  A    between atoms: _549  and  _550
REMARK                            x       y       z     vdW  Elec       q    Type
REMARK                         _______ _______ _______ _____ _____    ______ ____
ROOT
ATOM      1  NE  ARG A   1      20.898  -7.968   8.673  0.00  0.00    -0.265 N 
ATOM      2  CZ  ARG A   1      21.139  -9.099   9.331  0.00  0.00    +0.342 C 
ATOM      3  NH2 ARG A   1      20.187  -9.639  10.080  0.00  0.00    -0.292 N 
ATOM      4 HH21 ARG A   1      20.370 -10.523  10.596  0.00  0.00    +0.255 HD
ATOM      5 HH22 ARG A   1      19.257  -9.178  10.151  0.00  0.00    +0.255 HD
ATOM      6  NH1 ARG A   1      22.311  -9.714   9.236  0.00  0.00    -0.292 N 
ATOM      7 HH11 ARG A   1      22.479 -10.597   9.759  0.00  0.00    +0.255 HD
ATOM      8 HH12 ARG A   1      23.062  -9.313   8.639  0.00  0.00    +0.255 HD
ATOM      9  HE  ARG A   1      19.956  -7.540   8.780  0.00  0.00    +0.259 HD
ENDROOT
BRANCH   1  10
ATOM     10  CD  ARG A   1      21.858  -7.282   7.811  0.00  0.00    +0.174 C 
BRANCH  10  11
ATOM     11  CG  ARG A   1      21.189  -6.272   6.904  0.00  0.00    +0.045 C 
BRANCH  11  12
ATOM     12  CB  ARG A   1      22.217  -5.537   6.050  0.00  0.00    +0.029 C 
BRANCH  12  13
ATOM     13  CA  ARG A   1      21.592  -4.595   5.018  0.00  0.00    +0.133 C 
BRANCH  13  14
ATOM     14  N   ARG A   1      20.875  -5.358   4.002  0.00  0.00    -0.239 NA
ATOM     15  H   ARG A   1      20.847  -6.396   4.062  0.00  0.00    +0.142 HD
ENDBRANCH  13  14
BRANCH  13  16
ATOM     16  C   ARG A   1      22.662  -3.755   4.325  0.00  0.00    +0.224 C 
ATOM     17  O   ARG A   1      23.374  -4.289   3.461  0.00  0.00    -0.287 OA
ENDBRANCH  13  16
ENDBRANCH  12  13
ENDBRANCH  11  12
ENDBRANCH  10  11
ENDBRANCH   1  10
TORSDOF 6
REMARK  Name = ../refined-set-2016/3ekw/3ekw_pocket.pdb
REMARK  228 active torsions:
REMARK  status: ('A' for Active; 'I' for Inactive)
REMARK    1  A    between atoms: _1  and  _3
REMARK    2  A    between atoms: _3  and  _4
REMARK    3  A    between atoms: _3  and  _6
REMARK    4  A    between atoms: _6  and  _7
REMARK    5  A    between atoms: _7  and  _8
REMARK    6  A    between atoms: _8  and  _9
REMARK    7  A    between atoms: _18  and  _20
REMARK    8  A    between atoms: _20  and  _21
REMARK    9  A    between atoms: _20  and  _23
REMARK   10  A    between atoms: _23  and  _24
REMARK   11  A    between atoms: _27  and  _29
REMARK   12  A    between atoms: _29  and  _30
REMARK   13  A    between atoms: _29  and  _32
REMARK   14  A    between atoms: _32  and  _33
REMARK   15  A    between atoms: _36  and  _38
REMARK   16  A    between atoms: _38  and  _39
REMARK   17  A    between atoms: _38  and  _41
REMARK   18  A    between atoms: _41  and  _42
REMARK   19  A    between atoms: _45  and  _47
REMARK   20  A    between atoms: _47  and  _48
REMARK   21  A    between atoms: _47  and  _50
REMARK   22  A    between atoms: _50  and  _51
REMARK   23  A    between atoms: _54  and  _56
REMARK   24  A    between atoms: _56  and  _57
REMARK   25  A    between atoms: _59  and  _61
REMARK   26  A    between atoms: _61  and  _62
REMARK   27  A    between atoms: _65  and  _67
REMARK   28  A    between atoms: _67  and  _68
REMARK   29  A    between atoms: _67  and  _70
REMARK   30  A    between atoms: _70  and  _71
REMARK   31  A    between atoms: _74  and  _76
REMARK   32  A    between atoms: _76  and  _77
REMARK   33  A    between atoms: _76  and  _79
REMARK   34  A    between atoms: _79  and  _80
REMARK   35  A    between atoms: _83  and  _85
REMARK   36  A    between atoms: _85  and  _86
REMARK   37  A    between atoms: _85  and  _88
REMARK   38  A    between atoms: _88  and  _89
REMARK   39  A    between atoms: _92  and  _94
REMARK   40  A    between atoms: _94  and  _95
REMARK   41  A    between atoms: _94  and  _97
REMARK   42  A    between atoms: _100  and  _102
REMARK   43  A    between atoms: _102  and  _103
REMARK   44  A    between atoms: _102  and  _105
REMARK   45  A    between atoms: _105  and  _106
REMARK   46  A    between atoms: _106  and  _107
REMARK   47  A    between atoms: _107  and  _108
REMARK   48  A    between atoms: _108  and  _109
REMARK   49  A    between atoms: _113  and  _115
REMARK   50  A    between atoms: _115  and  _116
REMARK   51  A    between atoms: _115  and  _118
REMARK   52  A    between atoms: _118  and  _119
REMARK   53  A    between atoms: _119  and  _120
REMARK   54  A    between atoms: _122  and  _124
REMARK   55  A    between atoms: _124  and  _125
REMARK   56  A    between atoms: _124  and  _127
REMARK   57  A    between atoms: _127  and  _128
REMARK   58  A    between atoms: _131  and  _133
REMARK   59  A    between atoms: _133  and  _134
REMARK   60  A    between atoms: _133  and  _136
REMARK   61  A    between atoms: _139  and  _141
REMARK   62  A    between atoms: _141  and  _142
REMARK   63  A    between atoms: _144  and  _146
REMARK   64  A    between atoms: _146  and  _147
REMARK   65  A    between atoms: _146  and  _149
REMARK   66  A    between atoms: _149  and  _150
REMARK   67  A    between atoms: _153  and  _155
REMARK   68  A    between atoms: _155  and  _156
REMARK   69  A    between atoms: _158  and  _160
REMARK   70  A    between atoms: _160  and  _161
REMARK   71  A    between atoms: _163  and  _165
REMARK   72  A    between atoms: _165  and  _166
REMARK   73  A    between atoms: _165  and  _168
REMARK   74  A    between atoms: _171  and  _173
REMARK   75  A    between atoms: _173  and  _174
REMARK   76  A    between atoms: _173  and  _176
REMARK   77  A    between atoms: _179  and  _181
REMARK   78  A    between atoms: _181  and  _182
REMARK   79  A    between atoms: _181  and  _184
REMARK   80  A    between atoms: _184  and  _185
REMARK   81  A    between atoms: _188  and  _190
REMARK   82  A    between atoms: _190  and  _191
REMARK   83  A    between atoms: _190  and  _193
REMARK   84  A    between atoms: _193  and  _194
REMARK   85  A    between atoms: _198  and  _199
REMARK   86  A    between atoms: _204  and  _206
REMARK   87  A    between atoms: _206  and  _207
REMARK   88  A    between atoms: _210  and  _212
REMARK   89  A    between atoms: _212  and  _213
REMARK   90  A    between atoms: _212  and  _215
REMARK   91  A    between atoms: _215  and  _216
REMARK   92  A    between atoms: _221  and  _223
REMARK   93  A    between atoms: _223  and  _224
REMARK   94  A    between atoms: _223  and  _226
REMARK   95  A    between atoms: _226  and  _227
REMARK   96  A    between atoms: _230  and  _232
REMARK   97  A    between atoms: _232  and  _233
REMARK   98  A    between atoms: _232  and  _235
REMARK   99  A    between atoms: _235  and  _236
REMARK  100  A    between atoms: _239  and  _241
REMARK  101  A    between atoms: _241  and  _242
REMARK  102  A    between atoms: _244  and  _246
REMARK  103  A    between atoms: _246  and  _247
REMARK  104  A    between atoms: _246  and  _249
REMARK  105  A    between atoms: _249  and  _250
REMARK  106  A    between atoms: _250  and  _251
REMARK  107  A    between atoms: _251  and  _252
REMARK  108  A    between atoms: _261  and  _263
REMARK  109  A    between atoms: _263  and  _264
REMARK  110  A    between atoms: _263  and  _266
REMARK  111  A    between atoms: _266  and  _267
REMARK  112  A    between atoms: _267  and  _268
REMARK  113  A    between atoms: _268  and  _269
REMARK  114  A    between atoms: _278  and  _280
REMARK  115  A    between atoms: _280  and  _281
REMARK  116  A    between atoms: _280  and  _283
REMARK  117  A    between atoms: _283  and  _284
REMARK  118  A    between atoms: _287  and  _289
REMARK  119  A    between atoms: _289  and  _290
REMARK  120  A    between atoms: _289  and  _292
REMARK  121  A    between atoms: _292  and  _293
REMARK  122  A    between atoms: _296  and  _298
REMARK  123  A    between atoms: _298  and  _299
REMARK  124  A    between atoms: _298  and  _301
REMARK  125  A    between atoms: _301  and  _302
REMARK  126  A    between atoms: _305  and  _307
REMARK  127  A    between atoms: _307  and  _308
REMARK  128  A    between atoms: _307  and  _310
REMARK  129  A    between atoms: _310  and  _311
REMARK  130  A    between atoms: _314  and  _316
REMARK  131  A    between atoms: _316  and  _317
REMARK  132  A    between atoms: _316  and  _319
REMARK  133  A    between atoms: _319  and  _320
REMARK  134  A    between atoms: _323  and  _325
REMARK  135  A    between atoms: _325  and  _326
REMARK  136  A    between atoms: _328  and  _330
REMARK  137  A    between atoms: _330  and  _331
REMARK  138  A    between atoms: _334  and  _336
REMARK  139  A    between atoms: _336  and  _337
REMARK  140  A    between atoms: _336  and  _339
REMARK  141  A    between atoms: _339  and  _340
REMARK  142  A    between atoms: _343  and  _345
REMARK  143  A    between atoms: _345  and  _346
REMARK  144  A    between atoms: _345  and  _348
REMARK  145  A    between atoms: _348  and  _349
REMARK  146  A    between atoms: _352  and  _354
REMARK  147  A    between atoms: _354  and  _355
REMARK  148  A    between atoms: _354  and  _357
REMARK  149  A    between atoms: _357  and  _358
REMARK  150  A    between atoms: _361  and  _363
REMARK  151  A    between atoms: _363  and  _364
REMARK  152  A    between atoms: _363  and  _366
REMARK  153  A    between atoms: _369  and  _371
REMARK  154  A    between atoms: _371  and  _372
REMARK  155  A    between atoms: _371  and  _374
REMARK  156  A    between atoms: _374  and  _375
REMARK  157  A    between atoms: _375  and  _376
REMARK  158  A    between atoms: _379  and  _381
REMARK  159  A    between atoms: _381  and  _382
REMARK  160  A    between atoms: _381  and  _384
REMARK  161  A    between atoms: _384  and  _385
REMARK  162  A    between atoms: _385  and  _386
REMARK  163  A    between atoms: _386  and  _387
REMARK  164  A    between atoms: _387  and  _388
REMARK  165  A    between atoms: _392  and  _394
REMARK  166  A    between atoms: _394  and  _395
REMARK  167  A    between atoms: _394  and  _397
REMARK  168  A    between atoms: _397  and  _398
REMARK  169  A    between atoms: _398  and  _399
REMARK  170  A    between atoms: _401  and  _403
REMARK  171  A    between atoms: _403  and  _404
REMARK  172  A    between atoms: _403  and  _406
REMARK  173  A    between atoms: _406  and  _407
REMARK  174  A    between atoms: _410  and  _412
REMARK  175  A    between atoms: _412  and  _413
REMARK  176  A    between atoms: _412  and  _415
REMARK  177  A    between atoms: _418  and  _420
REMARK  178  A    between atoms: _420  and  _421
REMARK  179  A    between atoms: _423  and  _425
REMARK  180  A    between atoms: _425  and  _426
REMARK  181  A    between atoms: _425  and  _428
REMARK  182  A    between atoms: _428  and  _429
REMARK  183  A    between atoms: _432  and  _434
REMARK  184  A    between atoms: _434  and  _435
REMARK  185  A    between atoms: _437  and  _439
REMARK  186  A    between atoms: _439  and  _440
REMARK  187  A    between atoms: _442  and  _444
REMARK  188  A    between atoms: _444  and  _445
REMARK  189  A    between atoms: _444  and  _447
REMARK  190  A    between atoms: _447  and  _448
REMARK  191  A    between atoms: _454  and  _456
REMARK  192  A    between atoms: _456  and  _457
REMARK  193  A    between atoms: _456  and  _459
REMARK  194  A    between atoms: _462  and  _464
REMARK  195  A    between atoms: _464  and  _465
REMARK  196  A    between atoms: _464  and  _467
REMARK  197  A    between atoms: _470  and  _472
REMARK  198  A    between atoms: _472  and  _473
REMARK  199  A    between atoms: _472  and  _475
REMARK  200  A    between atoms: _475  and  _476
REMARK  201  A    between atoms: _480  and  _481
REMARK  202  A    between atoms: _486  and  _488
REMARK  203  A    between atoms: _488  and  _489
REMARK  204  A    between atoms: _488  and  _491
REMARK  205  A    between atoms: _491  and  _492
REMARK  206  A    between atoms: _496  and  _497
REMARK  207  A    between atoms: _502  and  _504
REMARK  208  A    between atoms: _504  and  _505
REMARK  209  A    between atoms: _508  and  _510
REMARK  210  A    between atoms: _510  and  _511
REMARK  211  A    between atoms: _510  and  _513
REMARK  212  A    between atoms: _513  and  _514
REMARK  213  A    between atoms: _519  and  _521
REMARK  214  A    between atoms: _521  and  _522
REMARK  215  A    between atoms: _521  and  _524
REMARK  216  A    between atoms: _524  and  _525
REMARK  217  A    between atoms: _528  and  _530
REMARK  218  A    between atoms: _530  and  _531
REMARK  219  A    between atoms: _530  and  _533
REMARK  220  A    between atoms: _533  and  _534
REMARK  221  A    between atoms: _537  and  _539
REMARK  222  A    between atoms: _539  and  _540
REMARK  223  A    between atoms: _542  and  _544
REMARK  224  A    between atoms: _544  and  _545
REMARK  225  A    between atoms: _544  and  _547
REMARK  226  A    between atoms: _547  and  _548
REMARK  227  A    between atoms: _548  and  _549
REMARK  228  A    between atoms: _549  and  _550
REMARK                            x       y       z     vdW  Elec       q    Type
REMARK                         _______ _______ _______ _____ _____    ______ ____
ROOT
ATOM      1  C   GLY A   5      20.924   4.259  15.572  0.00  0.00    +0.243 C 
ATOM      2  O   GLY A   5      20.521   3.948  16.694  0.00  0.00    -0.273 OA
ATOM      3  N   ALA A   6      22.204   4.497  15.284  0.00  0.00    -0.297 N 
ATOM      4  H   ALA A   6      22.446   4.784  14.314  0.00  0.00    +0.150 HD
ENDROOT
BRANCH   3   5
ATOM      5  CA  ALA A   6      23.279   4.376  16.256  0.00  0.00    +0.149 C 
ATOM      6  CB  ALA A   6      24.292   3.350  15.816  0.00  0.00    +0.031 C 
BRANCH   5   7
ATOM      7  C   ALA A   6      23.954   5.726  16.451  0.00  0.00    +0.241 C 
ATOM      8  N   ASP A   7      23.981   6.174  17.701  0.00  0.00    -0.297 N 
ATOM      9  H   ASP A   7      23.470   5.654  18.442  0.00  0.00    +0.150 HD
ATOM     10  O   ALA A   6      24.428   6.353  15.498  0.00  0.00    -0.273 OA
BRANCH   8  11
ATOM     11  CA  ASP A   7      24.719   7.389  18.052  0.00  0.00    +0.160 C 
BRANCH  11  12
ATOM     12  C   ASP A   7      26.210   7.183  17.820  0.00  0.00    +0.241 C 
ATOM     13  N   ASP A   8      26.678   5.982  18.147  0.00  0.00    -0.297 N 
ATOM     14  H   ASP A   8      25.991   5.230  18.359  0.00  0.00    +0.150 HD
ATOM     15  O   ASP A   7      26.902   8.105  17.390  0.00  0.00    -0.273 OA
BRANCH  13  16
ATOM     16  CA  ASP A   8      28.093   5.658  18.225  0.00  0.00    +0.160 C 
BRANCH  16  17
ATOM     17  C   ASP A   8      28.453   4.563  17.225  0.00  0.00    +0.241 C 
ATOM     18  N   THR A   9      29.759   4.426  17.005  0.00  0.00    -0.295 N 
ATOM     19  H   THR A   9      30.404   5.109  17.451  0.00  0.00    +0.150 HD
ATOM     20  O   ASP A   8      27.590   3.856  16.714  0.00  0.00    -0.273 OA
BRANCH  18  21
ATOM     21  CA  THR A   9      30.339   3.377  16.177  0.00  0.00    +0.176 C 
BRANCH  21  22
ATOM     22  C   THR A   9      30.875   2.277  17.091  0.00  0.00    +0.243 C 
ATOM     23  O   THR A   9      31.610   2.569  18.019  0.00  0.00    -0.273 OA
ATOM     24  N   VAL A  10      30.477   1.036  16.823  0.00  0.00    -0.298 N 
ATOM     25  H   VAL A  10      29.914   0.869  15.964  0.00  0.00    +0.150 HD
BRANCH  24  26
ATOM     26  CA  VAL A  10      30.796  -0.103  17.683  0.00  0.00    +0.137 C 
BRANCH  26  27
ATOM     27  CB  VAL A  10      29.571  -0.591  18.503  0.00  0.00    +0.026 C 
ATOM     28  CG2 VAL A  10      30.048  -1.512  19.617  0.00  0.00    +0.002 C 
ATOM     29  CG1 VAL A  10      28.766   0.573  19.082  0.00  0.00    +0.002 C 
ENDBRANCH  26  27
BRANCH  26  30
ATOM     30  C   VAL A  10      31.305  -1.253  16.824  0.00  0.00    +0.227 C 
ATOM     31  O   VAL A  10      30.590  -1.719  15.944  0.00  0.00    -0.286 OA
ENDBRANCH  26  30
ENDBRANCH  24  26
ENDBRANCH  21  22
BRANCH  21  32
ATOM     32  CB  THR A   9      31.476   3.987  15.326  0.00  0.00    +0.137 C 
ATOM     33  CG2 THR A   9      32.304   2.920  14.627  0.00  0.00    +0.034 C 
BRANCH  32  34
ATOM     34  OG1 THR A   9      30.881   4.879  14.375  0.00  0.00    -0.382 OA
ATOM     35  HG1 THR A   9      30.390   5.592  14.855  0.00  0.00    +0.210 HD
ENDBRANCH  32  34
ENDBRANCH  21  32
ENDBRANCH  18  21
ENDBRANCH  16  17
BRANCH  16  36
ATOM     36  CB  ASP A   8      28.437   5.149  19.632  0.00  0.00    +0.143 C 
BRANCH  36  37
ATOM     37  CG  ASP A   8      28.101   6.144  20.735  0.00  0.00    +0.367 C 
ATOM     38  OD2 ASP A   8      27.650   5.715  21.821  0.00  0.00    -0.246 OA
ATOM     39  OD1 ASP A   8      28.322   7.351  20.526  0.00  0.00    -0.246 OA
ENDBRANCH  36  37
ENDBRANCH  16  36
ENDBRANCH  13  16
ENDBRANCH  11  12
BRANCH  11  40
ATOM     40  CB  ASP A   7      24.530   7.749  19.532  0.00  0.00    +0.143 C 
BRANCH  40  41
ATOM     41  CG  ASP A   7      23.177   8.358  19.843  0.00  0.00    +0.367 C 
ATOM     42  OD2 ASP A   7      23.012   8.873  20.979  0.00  0.00    -0.246 OA
ATOM     43  OD1 ASP A   7      22.287   8.346  18.967  0.00  0.00    -0.246 OA
ENDBRANCH  40  41
ENDBRANCH  11  40
ENDBRANCH   8  11
ENDBRANCH   5   7
ENDBRANCH   3   5
BRANCH   1  44
ATOM     44  CA  GLY A   5      19.925   4.385  14.435  0.00  0.00    +0.176 C 
BRANCH  44  47
ATOM     45  C   THR A   4      20.827   5.735  12.619  0.00  0.00    +0.243 C 
ATOM     46  O   THR A   4      20.614   6.788  13.239  0.00  0.00    -0.273 OA
ATOM     47  N   GLY A   5      20.493   4.542  13.107  0.00  0.00    -0.295 N 
ATOM     48  H   GLY A   5      20.643   3.697  12.520  0.00  0.00    +0.150 HD
BRANCH  45  49
ATOM     49  CA  THR A   4      21.484   5.752  11.232  0.00  0.00    +0.176 C 
BRANCH  49  52
ATOM     50  C   ASP A   3      23.040   3.915  11.481  0.00  0.00    +0.241 C 
ATOM     51  O   ASP A   3      23.558   4.467  12.451  0.00  0.00    -0.273 OA
ATOM     52  N   THR A   4      21.988   4.436  10.850  0.00  0.00    -0.295 N 
ATOM     53  H   THR A   4      21.526   3.905  10.085  0.00  0.00    +0.150 HD
BRANCH  50  54
ATOM     54  CA  ASP A   3      23.560   2.563  10.981  0.00  0.00    +0.160 C 
BRANCH  54  56
ATOM     55  C   LEU A   2      24.538   2.060   8.804  0.00  0.00    +0.241 C 
ATOM     56  N   ASP A   3      24.611   2.686   9.977  0.00  0.00    -0.297 N 
ATOM     57  H   ASP A   3      25.440   3.279  10.183  0.00  0.00    +0.150 HD
ATOM     58  O   LEU A   2      23.477   1.657   8.323  0.00  0.00    -0.273 OA
BRANCH  55  59
ATOM     59  CA  LEU A   2      25.854   1.852   8.052  0.00  0.00    +0.149 C 
BRANCH  59  62
ATOM     60  C   LEU A   1      26.579  -0.242   9.046  0.00  0.00    +0.238 C 
ATOM     61  O   LEU A   1      26.844   0.336  10.094  0.00  0.00    -0.274 OA
ATOM     62  N   LEU A   2      26.141   0.419   7.982  0.00  0.00    -0.297 N 
ATOM     63  H   LEU A   2      26.000  -0.089   7.085  0.00  0.00    +0.150 HD
BRANCH  60  64
ATOM     64  CA  LEU A   1      26.709  -1.761   8.928  0.00  0.00    +0.145 C 
BRANCH  64  65
ATOM     65  N   LEU A   1      28.052  -2.214   9.243  0.00  0.00    -0.238 NA
ATOM     66  H   LEU A   1      28.265  -2.451  10.233  0.00  0.00    +0.142 HD
ENDBRANCH  64  65
BRANCH  64  67
ATOM     67  CB  LEU A   1      25.763  -2.427   9.929  0.00  0.00    +0.026 C 
BRANCH  67  68
ATOM     68  CG  LEU A   1      24.263  -2.188   9.849  0.00  0.00    +0.002 C 
ATOM     69  CD2 LEU A   1      23.687  -2.754  11.131  0.00  0.00    +0.000 C 
ATOM     70  CD1 LEU A   1      23.682  -2.881   8.637  0.00  0.00    +0.000 C 
ENDBRANCH  67  68
ENDBRANCH  64  67
ENDBRANCH  60  64
ENDBRANCH  59  62
BRANCH  59  71
ATOM     71  CB  LEU A   2      25.767   2.446   6.646  0.00  0.00    +0.029 C 
BRANCH  71  72
ATOM     72  CG  LEU A   2      27.020   2.265   5.789  0.00  0.00    +0.002 C 
ATOM     73  CD2 LEU A   2      28.213   2.941   6.427  0.00  0.00    +0.000 C 
ATOM     74  CD1 LEU A   2      26.766   2.820   4.385  0.00  0.00    +0.000 C 
ENDBRANCH  71  72
ENDBRANCH  59  71
ENDBRANCH  55  59
ENDBRANCH  54  56
BRANCH  54  75
ATOM     75  CB  ASP A   3      24.096   1.716  12.153  0.00  0.00    +0.143 C 
BRANCH  75  76
ATOM     76  CG  ASP A   3      23.025   1.304  13.137  0.00  0.00    +0.367 C 
ATOM     77  OD2 ASP A   3      23.347   0.543  14.079  0.00  0.00    -0.246 OA
ATOM     78  OD1 ASP A   3      21.863   1.734  12.979  0.00  0.00    -0.246 OA
ENDBRANCH  75  76
ENDBRANCH  54  75
ENDBRANCH  50  54
ENDBRANCH  49  52
BRANCH  49  79
ATOM     79  CB  THR A   4      20.492   6.295  10.183  0.00  0.00    +0.137 C 
ATOM     80  CG2 THR A   4      21.198   6.466   8.847  0.00  0.00    +0.034 C 
BRANCH  79  81
ATOM     81  OG1 THR A   4      19.383   5.392  10.041  0.00  0.00    -0.382 OA
ATOM     82  HG1 THR A   4      18.920   5.301  10.911  0.00  0.00    +0.210 HD
ENDBRANCH  79  81
ENDBRANCH  49  79
ENDBRANCH  45  49
ENDBRANCH  44  47
ENDBRANCH   1  44
TORSDOF 35
REMARK  Name = ../refined-set-2016/3ekw/3ekw_pocket.pdb
REMARK  228 active torsions:
REMARK  status: ('A' for Active; 'I' for Inactive)
REMARK    1  A    between atoms: _1  and  _3
REMARK    2  A    between atoms: _3  and  _4
REMARK    3  A    between atoms: _3  and  _6
REMARK    4  A    between atoms: _6  and  _7
REMARK    5  A    between atoms: _7  and  _8
REMARK    6  A    between atoms: _8  and  _9
REMARK    7  A    between atoms: _18  and  _20
REMARK    8  A    between atoms: _20  and  _21
REMARK    9  A    between atoms: _20  and  _23
REMARK   10  A    between atoms: _23  and  _24
REMARK   11  A    between atoms: _27  and  _29
REMARK   12  A    between atoms: _29  and  _30
REMARK   13  A    between atoms: _29  and  _32
REMARK   14  A    between atoms: _32  and  _33
REMARK   15  A    between atoms: _36  and  _38
REMARK   16  A    between atoms: _38  and  _39
REMARK   17  A    between atoms: _38  and  _41
REMARK   18  A    between atoms: _41  and  _42
REMARK   19  A    between atoms: _45  and  _47
REMARK   20  A    between atoms: _47  and  _48
REMARK   21  A    between atoms: _47  and  _50
REMARK   22  A    between atoms: _50  and  _51
REMARK   23  A    between atoms: _54  and  _56
REMARK   24  A    between atoms: _56  and  _57
REMARK   25  A    between atoms: _59  and  _61
REMARK   26  A    between atoms: _61  and  _62
REMARK   27  A    between atoms: _65  and  _67
REMARK   28  A    between atoms: _67  and  _68
REMARK   29  A    between atoms: _67  and  _70
REMARK   30  A    between atoms: _70  and  _71
REMARK   31  A    between atoms: _74  and  _76
REMARK   32  A    between atoms: _76  and  _77
REMARK   33  A    between atoms: _76  and  _79
REMARK   34  A    between atoms: _79  and  _80
REMARK   35  A    between atoms: _83  and  _85
REMARK   36  A    between atoms: _85  and  _86
REMARK   37  A    between atoms: _85  and  _88
REMARK   38  A    between atoms: _88  and  _89
REMARK   39  A    between atoms: _92  and  _94
REMARK   40  A    between atoms: _94  and  _95
REMARK   41  A    between atoms: _94  and  _97
REMARK   42  A    between atoms: _100  and  _102
REMARK   43  A    between atoms: _102  and  _103
REMARK   44  A    between atoms: _102  and  _105
REMARK   45  A    between atoms: _105  and  _106
REMARK   46  A    between atoms: _106  and  _107
REMARK   47  A    between atoms: _107  and  _108
REMARK   48  A    between atoms: _108  and  _109
REMARK   49  A    between atoms: _113  and  _115
REMARK   50  A    between atoms: _115  and  _116
REMARK   51  A    between atoms: _115  and  _118
REMARK   52  A    between atoms: _118  and  _119
REMARK   53  A    between atoms: _119  and  _120
REMARK   54  A    between atoms: _122  and  _124
REMARK   55  A    between atoms: _124  and  _125
REMARK   56  A    between atoms: _124  and  _127
REMARK   57  A    between atoms: _127  and  _128
REMARK   58  A    between atoms: _131  and  _133
REMARK   59  A    between atoms: _133  and  _134
REMARK   60  A    between atoms: _133  and  _136
REMARK   61  A    between atoms: _139  and  _141
REMARK   62  A    between atoms: _141  and  _142
REMARK   63  A    between atoms: _144  and  _146
REMARK   64  A    between atoms: _146  and  _147
REMARK   65  A    between atoms: _146  and  _149
REMARK   66  A    between atoms: _149  and  _150
REMARK   67  A    between atoms: _153  and  _155
REMARK   68  A    between atoms: _155  and  _156
REMARK   69  A    between atoms: _158  and  _160
REMARK   70  A    between atoms: _160  and  _161
REMARK   71  A    between atoms: _163  and  _165
REMARK   72  A    between atoms: _165  and  _166
REMARK   73  A    between atoms: _165  and  _168
REMARK   74  A    between atoms: _171  and  _173
REMARK   75  A    between atoms: _173  and  _174
REMARK   76  A    between atoms: _173  and  _176
REMARK   77  A    between atoms: _179  and  _181
REMARK   78  A    between atoms: _181  and  _182
REMARK   79  A    between atoms: _181  and  _184
REMARK   80  A    between atoms: _184  and  _185
REMARK   81  A    between atoms: _188  and  _190
REMARK   82  A    between atoms: _190  and  _191
REMARK   83  A    between atoms: _190  and  _193
REMARK   84  A    between atoms: _193  and  _194
REMARK   85  A    between atoms: _198  and  _199
REMARK   86  A    between atoms: _204  and  _206
REMARK   87  A    between atoms: _206  and  _207
REMARK   88  A    between atoms: _210  and  _212
REMARK   89  A    between atoms: _212  and  _213
REMARK   90  A    between atoms: _212  and  _215
REMARK   91  A    between atoms: _215  and  _216
REMARK   92  A    between atoms: _221  and  _223
REMARK   93  A    between atoms: _223  and  _224
REMARK   94  A    between atoms: _223  and  _226
REMARK   95  A    between atoms: _226  and  _227
REMARK   96  A    between atoms: _230  and  _232
REMARK   97  A    between atoms: _232  and  _233
REMARK   98  A    between atoms: _232  and  _235
REMARK   99  A    between atoms: _235  and  _236
REMARK  100  A    between atoms: _239  and  _241
REMARK  101  A    between atoms: _241  and  _242
REMARK  102  A    between atoms: _244  and  _246
REMARK  103  A    between atoms: _246  and  _247
REMARK  104  A    between atoms: _246  and  _249
REMARK  105  A    between atoms: _249  and  _250
REMARK  106  A    between atoms: _250  and  _251
REMARK  107  A    between atoms: _251  and  _252
REMARK  108  A    between atoms: _261  and  _263
REMARK  109  A    between atoms: _263  and  _264
REMARK  110  A    between atoms: _263  and  _266
REMARK  111  A    between atoms: _266  and  _267
REMARK  112  A    between atoms: _267  and  _268
REMARK  113  A    between atoms: _268  and  _269
REMARK  114  A    between atoms: _278  and  _280
REMARK  115  A    between atoms: _280  and  _281
REMARK  116  A    between atoms: _280  and  _283
REMARK  117  A    between atoms: _283  and  _284
REMARK  118  A    between atoms: _287  and  _289
REMARK  119  A    between atoms: _289  and  _290
REMARK  120  A    between atoms: _289  and  _292
REMARK  121  A    between atoms: _292  and  _293
REMARK  122  A    between atoms: _296  and  _298
REMARK  123  A    between atoms: _298  and  _299
REMARK  124  A    between atoms: _298  and  _301
REMARK  125  A    between atoms: _301  and  _302
REMARK  126  A    between atoms: _305  and  _307
REMARK  127  A    between atoms: _307  and  _308
REMARK  128  A    between atoms: _307  and  _310
REMARK  129  A    between atoms: _310  and  _311
REMARK  130  A    between atoms: _314  and  _316
REMARK  131  A    between atoms: _316  and  _317
REMARK  132  A    between atoms: _316  and  _319
REMARK  133  A    between atoms: _319  and  _320
REMARK  134  A    between atoms: _323  and  _325
REMARK  135  A    between atoms: _325  and  _326
REMARK  136  A    between atoms: _328  and  _330
REMARK  137  A    between atoms: _330  and  _331
REMARK  138  A    between atoms: _334  and  _336
REMARK  139  A    between atoms: _336  and  _337
REMARK  140  A    between atoms: _336  and  _339
REMARK  141  A    between atoms: _339  and  _340
REMARK  142  A    between atoms: _343  and  _345
REMARK  143  A    between atoms: _345  and  _346
REMARK  144  A    between atoms: _345  and  _348
REMARK  145  A    between atoms: _348  and  _349
REMARK  146  A    between atoms: _352  and  _354
REMARK  147  A    between atoms: _354  and  _355
REMARK  148  A    between atoms: _354  and  _357
REMARK  149  A    between atoms: _357  and  _358
REMARK  150  A    between atoms: _361  and  _363
REMARK  151  A    between atoms: _363  and  _364
REMARK  152  A    between atoms: _363  and  _366
REMARK  153  A    between atoms: _369  and  _371
REMARK  154  A    between atoms: _371  and  _372
REMARK  155  A    between atoms: _371  and  _374
REMARK  156  A    between atoms: _374  and  _375
REMARK  157  A    between atoms: _375  and  _376
REMARK  158  A    between atoms: _379  and  _381
REMARK  159  A    between atoms: _381  and  _382
REMARK  160  A    between atoms: _381  and  _384
REMARK  161  A    between atoms: _384  and  _385
REMARK  162  A    between atoms: _385  and  _386
REMARK  163  A    between atoms: _386  and  _387
REMARK  164  A    between atoms: _387  and  _388
REMARK  165  A    between atoms: _392  and  _394
REMARK  166  A    between atoms: _394  and  _395
REMARK  167  A    between atoms: _394  and  _397
REMARK  168  A    between atoms: _397  and  _398
REMARK  169  A    between atoms: _398  and  _399
REMARK  170  A    between atoms: _401  and  _403
REMARK  171  A    between atoms: _403  and  _404
REMARK  172  A    between atoms: _403  and  _406
REMARK  173  A    between atoms: _406  and  _407
REMARK  174  A    between atoms: _410  and  _412
REMARK  175  A    between atoms: _412  and  _413
REMARK  176  A    between atoms: _412  and  _415
REMARK  177  A    between atoms: _418  and  _420
REMARK  178  A    between atoms: _420  and  _421
REMARK  179  A    between atoms: _423  and  _425
REMARK  180  A    between atoms: _425  and  _426
REMARK  181  A    between atoms: _425  and  _428
REMARK  182  A    between atoms: _428  and  _429
REMARK  183  A    between atoms: _432  and  _434
REMARK  184  A    between atoms: _434  and  _435
REMARK  185  A    between atoms: _437  and  _439
REMARK  186  A    between atoms: _439  and  _440
REMARK  187  A    between atoms: _442  and  _444
REMARK  188  A    between atoms: _444  and  _445
REMARK  189  A    between atoms: _444  and  _447
REMARK  190  A    between atoms: _447  and  _448
REMARK  191  A    between atoms: _454  and  _456
REMARK  192  A    between atoms: _456  and  _457
REMARK  193  A    between atoms: _456  and  _459
REMARK  194  A    between atoms: _462  and  _464
REMARK  195  A    between atoms: _464  and  _465
REMARK  196  A    between atoms: _464  and  _467
REMARK  197  A    between atoms: _470  and  _472
REMARK  198  A    between atoms: _472  and  _473
REMARK  199  A    between atoms: _472  and  _475
REMARK  200  A    between atoms: _475  and  _476
REMARK  201  A    between atoms: _480  and  _481
REMARK  202  A    between atoms: _486  and  _488
REMARK  203  A    between atoms: _488  and  _489
REMARK  204  A    between atoms: _488  and  _491
REMARK  205  A    between atoms: _491  and  _492
REMARK  206  A    between atoms: _496  and  _497
REMARK  207  A    between atoms: _502  and  _504
REMARK  208  A    between atoms: _504  and  _505
REMARK  209  A    between atoms: _508  and  _510
REMARK  210  A    between atoms: _510  and  _511
REMARK  211  A    between atoms: _510  and  _513
REMARK  212  A    between atoms: _513  and  _514
REMARK  213  A    between atoms: _519  and  _521
REMARK  214  A    between atoms: _521  and  _522
REMARK  215  A    between atoms: _521  and  _524
REMARK  216  A    between atoms: _524  and  _525
REMARK  217  A    between atoms: _528  and  _530
REMARK  218  A    between atoms: _530  and  _531
REMARK  219  A    between atoms: _530  and  _533
REMARK  220  A    between atoms: _533  and  _534
REMARK  221  A    between atoms: _537  and  _539
REMARK  222  A    between atoms: _539  and  _540
REMARK  223  A    between atoms: _542  and  _544
REMARK  224  A    between atoms: _544  and  _545
REMARK  225  A    between atoms: _544  and  _547
REMARK  226  A    between atoms: _547  and  _548
REMARK  227  A    between atoms: _548  and  _549
REMARK  228  A    between atoms: _549  and  _550
REMARK                            x       y       z     vdW  Elec       q    Type
REMARK                         _______ _______ _______ _____ _____    ______ ____
ROOT
ATOM      1  C   ILE A   3      24.901   0.915  26.012  0.00  0.00    +0.241 C 
ATOM      2  O   ILE A   3      24.935  -0.186  26.560  0.00  0.00    -0.273 OA
ATOM      3  N   VAL A   4      23.799   1.446  25.495  0.00  0.00    -0.297 N 
ATOM      4  H   VAL A   4      23.871   2.316  24.930  0.00  0.00    +0.150 HD
ENDROOT
BRANCH   3   5
ATOM      5  CA  VAL A   4      22.483   0.834  25.702  0.00  0.00    +0.149 C 
BRANCH   5   6
ATOM      6  C   VAL A   4      21.689   0.849  24.413  0.00  0.00    +0.241 C 
ATOM      7  N   GLY A   5      20.960  -0.235  24.184  0.00  0.00    -0.295 N 
ATOM      8  H   GLY A   5      21.076  -1.060  24.806  0.00  0.00    +0.150 HD
ATOM      9  O   VAL A   4      21.717   1.830  23.672  0.00  0.00    -0.273 OA
BRANCH   7  10
ATOM     10  CA  GLY A   5      20.008  -0.307  23.096  0.00  0.00    +0.176 C 
BRANCH  10  11
ATOM     11  C   GLY A   5      18.997  -1.390  23.400  0.00  0.00    +0.243 C 
ATOM     12  O   GLY A   5      18.732  -1.684  24.567  0.00  0.00    -0.273 OA
ATOM     13  N   ILE A   6      18.422  -1.980  22.360  0.00  0.00    -0.297 N 
ATOM     14  H   ILE A   6      18.647  -1.662  21.396  0.00  0.00    +0.150 HD
BRANCH  13  15
ATOM     15  CA  ILE A   6      17.476  -3.072  22.561  0.00  0.00    +0.149 C 
BRANCH  15  16
ATOM     16  C   ILE A   6      18.248  -4.271  23.110  0.00  0.00    +0.241 C 
ATOM     17  N   GLY A   7      17.683  -4.924  24.119  0.00  0.00    -0.295 N 
ATOM     18  H   GLY A   7      16.714  -4.669  24.399  0.00  0.00    +0.150 HD
ATOM     19  O   ILE A   6      19.343  -4.568  22.652  0.00  0.00    -0.273 OA
BRANCH  17  20
ATOM     20  CA  GLY A   7      18.365  -5.982  24.848  0.00  0.00    +0.176 C 
BRANCH  20  21
ATOM     21  C   GLY A   7      19.220  -5.505  26.005  0.00  0.00    +0.243 C 
ATOM     22  O   GLY A   7      19.778  -6.334  26.729  0.00  0.00    -0.273 OA
ATOM     23  N   GLY A   8      19.366  -4.192  26.178  0.00  0.00    -0.296 N 
ATOM     24  H   GLY A   8      19.049  -3.544  25.428  0.00  0.00    +0.150 HD
BRANCH  23  25
ATOM     25  CA  GLY A   8      19.958  -3.639  27.390  0.00  0.00    +0.163 C 
BRANCH  25  26
ATOM     26  C   GLY A   8      21.360  -3.098  27.205  0.00  0.00    +0.229 C 
ATOM     27  O   GLY A   8      21.695  -2.610  26.128  0.00  0.00    -0.286 OA
ENDBRANCH  25  26
ENDBRANCH  23  25
ENDBRANCH  20  21
ENDBRANCH  17  20
ENDBRANCH  15  16
BRANCH  15  28
ATOM     28  CB  ILE A   6      16.689  -3.390  21.269  0.00  0.00    +0.027 C 
ATOM     29  CG2 ILE A   6      16.056  -4.781  21.328  0.00  0.00    +0.002 C 
BRANCH  28  30
ATOM     30  CG1 ILE A   6      15.605  -2.321  21.080  0.00  0.00    +0.002 C 
ATOM     31  CD1 ILE A   6      15.110  -2.170  19.670  0.00  0.00    +0.000 C 
ENDBRANCH  28  30
ENDBRANCH  15  28
ENDBRANCH  13  15
ENDBRANCH  10  11
ENDBRANCH   7  10
ENDBRANCH   5   6
BRANCH   5  32
ATOM     32  CB  VAL A   4      21.591   1.629  26.677  0.00  0.00    +0.027 C 
ATOM     33  CG2 VAL A   4      22.415   2.400  27.671  0.00  0.00    +0.002 C 
ATOM     34  CG1 VAL A   4      20.546   0.712  27.345  0.00  0.00    +0.002 C 
ENDBRANCH   5  32
ENDBRANCH   3   5
BRANCH   1  35
ATOM     35  CA  ILE A   3      26.154   1.771  25.939  0.00  0.00    +0.149 C 
BRANCH  35  38
ATOM     36  C   MET A   2      27.639   2.072  27.849  0.00  0.00    +0.241 C 
ATOM     37  O   MET A   2      27.431   3.281  27.896  0.00  0.00    -0.273 OA
ATOM     38  N   ILE A   3      27.115   1.278  26.920  0.00  0.00    -0.297 N 
ATOM     39  H   ILE A   3      27.398   0.278  26.892  0.00  0.00    +0.150 HD
BRANCH  36  40
ATOM     40  CA  MET A   2      28.546   1.412  28.879  0.00  0.00    +0.149 C 
BRANCH  40  42
ATOM     41  C   LYS A   1      30.941   1.786  28.563  0.00  0.00    +0.238 C 
ATOM     42  N   MET A   2      29.760   2.215  28.997  0.00  0.00    -0.297 N 
ATOM     43  H   MET A   2      29.698   3.156  29.436  0.00  0.00    +0.150 HD
ATOM     44  O   LYS A   1      31.139   0.643  28.150  0.00  0.00    -0.274 OA
BRANCH  41  45
ATOM     45  CA  LYS A   1      32.090   2.793  28.605  0.00  0.00    +0.145 C 
BRANCH  45  46
ATOM     46  N   LYS A   1      33.320   2.035  28.813  0.00  0.00    -0.238 NA
ATOM     47  H   LYS A   1      33.419   1.112  28.345  0.00  0.00    +0.142 HD
ENDBRANCH  45  46
BRANCH  45  48
ATOM     48  CB  LYS A   1      32.154   3.559  27.274  0.00  0.00    +0.026 C 
BRANCH  48  49
ATOM     49  CG  LYS A   1      31.040   4.583  27.061  0.00  0.00    -0.000 C 
BRANCH  49  50
ATOM     50  CD  LYS A   1      30.896   5.050  25.610  0.00  0.00    -0.024 C 
BRANCH  50  51
ATOM     51  CE  LYS A   1      30.150   6.382  25.520  0.00  0.00    -0.086 C 
BRANCH  51  52
ATOM     52  NZ  LYS A   1      29.207   6.498  24.363  0.00  0.00    +0.380 N 
ATOM     53  HZ1 LYS A   1      28.484   5.753  24.431  0.00  0.00    -0.089 HD
ATOM     54  HZ2 LYS A   1      28.748   7.431  24.383  0.00  0.00    -0.089 HD
ATOM     55  HZ3 LYS A   1      29.736   6.390  23.474  0.00  0.00    -0.089 HD
ENDBRANCH  51  52
ENDBRANCH  50  51
ENDBRANCH  49  50
ENDBRANCH  48  49
ENDBRANCH  45  48
ENDBRANCH  41  45
ENDBRANCH  40  42
BRANCH  40  56
ATOM     56  CB  MET A   2      27.796   1.342  30.211  0.00  0.00    +0.041 C 
BRANCH  56  57
ATOM     57  CG  MET A   2      28.593   0.793  31.384  0.00  0.00    +0.060 C 
BRANCH  57  58
ATOM     58  SD  MET A   2      29.153  -0.898  31.102  0.00  0.00    -0.139 S 
ATOM     59  CE  MET A   2      27.590  -1.775  31.048  0.00  0.00    +0.069 C 
ENDBRANCH  57  58
ENDBRANCH  56  57
ENDBRANCH  40  56
ENDBRANCH  36  40
ENDBRANCH  35  38
BRANCH  35  60
ATOM     60  CB  ILE A   3      26.757   1.807  24.515  0.00  0.00    +0.027 C 
ATOM     61  CG2 ILE A   3      28.000   2.680  24.526  0.00  0.00    +0.002 C 
BRANCH  60  62
ATOM     62  CG1 ILE A   3      27.100   0.403  24.002  0.00  0.00    +0.002 C 
ATOM     63  CD1 ILE A   3      27.724   0.378  22.609  0.00  0.00    +0.000 C 
ENDBRANCH  60  62
ENDBRANCH  35  60
ENDBRANCH   1  35
TORSDOF 29
REMARK  Name = ../refined-set-2016/3ekw/3ekw_pocket.pdb
REMARK  228 active torsions:
REMARK  status: ('A' for Active; 'I' for Inactive)
REMARK    1  A    between atoms: _1  and  _3
REMARK    2  A    between atoms: _3  and  _4
REMARK    3  A    between atoms: _3  and  _6
REMARK    4  A    between atoms: _6  and  _7
REMARK    5  A    between atoms: _7  and  _8
REMARK    6  A    between atoms: _8  and  _9
REMARK    7  A    between atoms: _18  and  _20
REMARK    8  A    between atoms: _20  and  _21
REMARK    9  A    between atoms: _20  and  _23
REMARK   10  A    between atoms: _23  and  _24
REMARK   11  A    between atoms: _27  and  _29
REMARK   12  A    between atoms: _29  and  _30
REMARK   13  A    between atoms: _29  and  _32
REMARK   14  A    between atoms: _32  and  _33
REMARK   15  A    between atoms: _36  and  _38
REMARK   16  A    between atoms: _38  and  _39
REMARK   17  A    between atoms: _38  and  _41
REMARK   18  A    between atoms: _41  and  _42
REMARK   19  A    between atoms: _45  and  _47
REMARK   20  A    between atoms: _47  and  _48
REMARK   21  A    between atoms: _47  and  _50
REMARK   22  A    between atoms: _50  and  _51
REMARK   23  A    between atoms: _54  and  _56
REMARK   24  A    between atoms: _56  and  _57
REMARK   25  A    between atoms: _59  and  _61
REMARK   26  A    between atoms: _61  and  _62
REMARK   27  A    between atoms: _65  and  _67
REMARK   28  A    between atoms: _67  and  _68
REMARK   29  A    between atoms: _67  and  _70
REMARK   30  A    between atoms: _70  and  _71
REMARK   31  A    between atoms: _74  and  _76
REMARK   32  A    between atoms: _76  and  _77
REMARK   33  A    between atoms: _76  and  _79
REMARK   34  A    between atoms: _79  and  _80
REMARK   35  A    between atoms: _83  and  _85
REMARK   36  A    between atoms: _85  and  _86
REMARK   37  A    between atoms: _85  and  _88
REMARK   38  A    between atoms: _88  and  _89
REMARK   39  A    between atoms: _92  and  _94
REMARK   40  A    between atoms: _94  and  _95
REMARK   41  A    between atoms: _94  and  _97
REMARK   42  A    between atoms: _100  and  _102
REMARK   43  A    between atoms: _102  and  _103
REMARK   44  A    between atoms: _102  and  _105
REMARK   45  A    between atoms: _105  and  _106
REMARK   46  A    between atoms: _106  and  _107
REMARK   47  A    between atoms: _107  and  _108
REMARK   48  A    between atoms: _108  and  _109
REMARK   49  A    between atoms: _113  and  _115
REMARK   50  A    between atoms: _115  and  _116
REMARK   51  A    between atoms: _115  and  _118
REMARK   52  A    between atoms: _118  and  _119
REMARK   53  A    between atoms: _119  and  _120
REMARK   54  A    between atoms: _122  and  _124
REMARK   55  A    between atoms: _124  and  _125
REMARK   56  A    between atoms: _124  and  _127
REMARK   57  A    between atoms: _127  and  _128
REMARK   58  A    between atoms: _131  and  _133
REMARK   59  A    between atoms: _133  and  _134
REMARK   60  A    between atoms: _133  and  _136
REMARK   61  A    between atoms: _139  and  _141
REMARK   62  A    between atoms: _141  and  _142
REMARK   63  A    between atoms: _144  and  _146
REMARK   64  A    between atoms: _146  and  _147
REMARK   65  A    between atoms: _146  and  _149
REMARK   66  A    between atoms: _149  and  _150
REMARK   67  A    between atoms: _153  and  _155
REMARK   68  A    between atoms: _155  and  _156
REMARK   69  A    between atoms: _158  and  _160
REMARK   70  A    between atoms: _160  and  _161
REMARK   71  A    between atoms: _163  and  _165
REMARK   72  A    between atoms: _165  and  _166
REMARK   73  A    between atoms: _165  and  _168
REMARK   74  A    between atoms: _171  and  _173
REMARK   75  A    between atoms: _173  and  _174
REMARK   76  A    between atoms: _173  and  _176
REMARK   77  A    between atoms: _179  and  _181
REMARK   78  A    between atoms: _181  and  _182
REMARK   79  A    between atoms: _181  and  _184
REMARK   80  A    between atoms: _184  and  _185
REMARK   81  A    between atoms: _188  and  _190
REMARK   82  A    between atoms: _190  and  _191
REMARK   83  A    between atoms: _190  and  _193
REMARK   84  A    between atoms: _193  and  _194
REMARK   85  A    between atoms: _198  and  _199
REMARK   86  A    between atoms: _204  and  _206
REMARK   87  A    between atoms: _206  and  _207
REMARK   88  A    between atoms: _210  and  _212
REMARK   89  A    between atoms: _212  and  _213
REMARK   90  A    between atoms: _212  and  _215
REMARK   91  A    between atoms: _215  and  _216
REMARK   92  A    between atoms: _221  and  _223
REMARK   93  A    between atoms: _223  and  _224
REMARK   94  A    between atoms: _223  and  _226
REMARK   95  A    between atoms: _226  and  _227
REMARK   96  A    between atoms: _230  and  _232
REMARK   97  A    between atoms: _232  and  _233
REMARK   98  A    between atoms: _232  and  _235
REMARK   99  A    between atoms: _235  and  _236
REMARK  100  A    between atoms: _239  and  _241
REMARK  101  A    between atoms: _241  and  _242
REMARK  102  A    between atoms: _244  and  _246
REMARK  103  A    between atoms: _246  and  _247
REMARK  104  A    between atoms: _246  and  _249
REMARK  105  A    between atoms: _249  and  _250
REMARK  106  A    between atoms: _250  and  _251
REMARK  107  A    between atoms: _251  and  _252
REMARK  108  A    between atoms: _261  and  _263
REMARK  109  A    between atoms: _263  and  _264
REMARK  110  A    between atoms: _263  and  _266
REMARK  111  A    between atoms: _266  and  _267
REMARK  112  A    between atoms: _267  and  _268
REMARK  113  A    between atoms: _268  and  _269
REMARK  114  A    between atoms: _278  and  _280
REMARK  115  A    between atoms: _280  and  _281
REMARK  116  A    between atoms: _280  and  _283
REMARK  117  A    between atoms: _283  and  _284
REMARK  118  A    between atoms: _287  and  _289
REMARK  119  A    between atoms: _289  and  _290
REMARK  120  A    between atoms: _289  and  _292
REMARK  121  A    between atoms: _292  and  _293
REMARK  122  A    between atoms: _296  and  _298
REMARK  123  A    between atoms: _298  and  _299
REMARK  124  A    between atoms: _298  and  _301
REMARK  125  A    between atoms: _301  and  _302
REMARK  126  A    between atoms: _305  and  _307
REMARK  127  A    between atoms: _307  and  _308
REMARK  128  A    between atoms: _307  and  _310
REMARK  129  A    between atoms: _310  and  _311
REMARK  130  A    between atoms: _314  and  _316
REMARK  131  A    between atoms: _316  and  _317
REMARK  132  A    between atoms: _316  and  _319
REMARK  133  A    between atoms: _319  and  _320
REMARK  134  A    between atoms: _323  and  _325
REMARK  135  A    between atoms: _325  and  _326
REMARK  136  A    between atoms: _328  and  _330
REMARK  137  A    between atoms: _330  and  _331
REMARK  138  A    between atoms: _334  and  _336
REMARK  139  A    between atoms: _336  and  _337
REMARK  140  A    between atoms: _336  and  _339
REMARK  141  A    between atoms: _339  and  _340
REMARK  142  A    between atoms: _343  and  _345
REMARK  143  A    between atoms: _345  and  _346
REMARK  144  A    between atoms: _345  and  _348
REMARK  145  A    between atoms: _348  and  _349
REMARK  146  A    between atoms: _352  and  _354
REMARK  147  A    between atoms: _354  and  _355
REMARK  148  A    between atoms: _354  and  _357
REMARK  149  A    between atoms: _357  and  _358
REMARK  150  A    between atoms: _361  and  _363
REMARK  151  A    between atoms: _363  and  _364
REMARK  152  A    between atoms: _363  and  _366
REMARK  153  A    between atoms: _369  and  _371
REMARK  154  A    between atoms: _371  and  _372
REMARK  155  A    between atoms: _371  and  _374
REMARK  156  A    between atoms: _374  and  _375
REMARK  157  A    between atoms: _375  and  _376
REMARK  158  A    between atoms: _379  and  _381
REMARK  159  A    between atoms: _381  and  _382
REMARK  160  A    between atoms: _381  and  _384
REMARK  161  A    between atoms: _384  and  _385
REMARK  162  A    between atoms: _385  and  _386
REMARK  163  A    between atoms: _386  and  _387
REMARK  164  A    between atoms: _387  and  _388
REMARK  165  A    between atoms: _392  and  _394
REMARK  166  A    between atoms: _394  and  _395
REMARK  167  A    between atoms: _394  and  _397
REMARK  168  A    between atoms: _397  and  _398
REMARK  169  A    between atoms: _398  and  _399
REMARK  170  A    between atoms: _401  and  _403
REMARK  171  A    between atoms: _403  and  _404
REMARK  172  A    between atoms: _403  and  _406
REMARK  173  A    between atoms: _406  and  _407
REMARK  174  A    between atoms: _410  and  _412
REMARK  175  A    between atoms: _412  and  _413
REMARK  176  A    between atoms: _412  and  _415
REMARK  177  A    between atoms: _418  and  _420
REMARK  178  A    between atoms: _420  and  _421
REMARK  179  A    between atoms: _423  and  _425
REMARK  180  A    between atoms: _425  and  _426
REMARK  181  A    between atoms: _425  and  _428
REMARK  182  A    between atoms: _428  and  _429
REMARK  183  A    between atoms: _432  and  _434
REMARK  184  A    between atoms: _434  and  _435
REMARK  185  A    between atoms: _437  and  _439
REMARK  186  A    between atoms: _439  and  _440
REMARK  187  A    between atoms: _442  and  _444
REMARK  188  A    between atoms: _444  and  _445
REMARK  189  A    between atoms: _444  and  _447
REMARK  190  A    between atoms: _447  and  _448
REMARK  191  A    between atoms: _454  and  _456
REMARK  192  A    between atoms: _456  and  _457
REMARK  193  A    between atoms: _456  and  _459
REMARK  194  A    between atoms: _462  and  _464
REMARK  195  A    between atoms: _464  and  _465
REMARK  196  A    between atoms: _464  and  _467
REMARK  197  A    between atoms: _470  and  _472
REMARK  198  A    between atoms: _472  and  _473
REMARK  199  A    between atoms: _472  and  _475
REMARK  200  A    between atoms: _475  and  _476
REMARK  201  A    between atoms: _480  and  _481
REMARK  202  A    between atoms: _486  and  _488
REMARK  203  A    between atoms: _488  and  _489
REMARK  204  A    between atoms: _488  and  _491
REMARK  205  A    between atoms: _491  and  _492
REMARK  206  A    between atoms: _496  and  _497
REMARK  207  A    between atoms: _502  and  _504
REMARK  208  A    between atoms: _504  and  _505
REMARK  209  A    between atoms: _508  and  _510
REMARK  210  A    between atoms: _510  and  _511
REMARK  211  A    between atoms: _510  and  _513
REMARK  212  A    between atoms: _513  and  _514
REMARK  213  A    between atoms: _519  and  _521
REMARK  214  A    between atoms: _521  and  _522
REMARK  215  A    between atoms: _521  and  _524
REMARK  216  A    between atoms: _524  and  _525
REMARK  217  A    between atoms: _528  and  _530
REMARK  218  A    between atoms: _530  and  _531
REMARK  219  A    between atoms: _530  and  _533
REMARK  220  A    between atoms: _533  and  _534
REMARK  221  A    between atoms: _537  and  _539
REMARK  222  A    between atoms: _539  and  _540
REMARK  223  A    between atoms: _542  and  _544
REMARK  224  A    between atoms: _544  and  _545
REMARK  225  A    between atoms: _544  and  _547
REMARK  226  A    between atoms: _547  and  _548
REMARK  227  A    between atoms: _548  and  _549
REMARK  228  A    between atoms: _549  and  _550
REMARK                            x       y       z     vdW  Elec       q    Type
REMARK                         _______ _______ _______ _____ _____    ______ ____
ROOT
ATOM      1  CA  VAL A   1      26.840  -3.530  26.852  0.00  0.00    +0.133 C 
ENDROOT
BRANCH   1   2
ATOM      2  CB  VAL A   1      26.830  -3.614  25.312  0.00  0.00    +0.023 C 
ATOM      3  CG2 VAL A   1      25.599  -4.392  24.853  0.00  0.00    +0.002 C 
ATOM      4  CG1 VAL A   1      28.114  -4.242  24.785  0.00  0.00    +0.002 C 
ENDBRANCH   1   2
BRANCH   1   5
ATOM      5  N   VAL A   1      25.639  -2.848  27.320  0.00  0.00    -0.239 NA
ATOM      6  H   VAL A   1      25.599  -1.812  27.235  0.00  0.00    +0.142 HD
ENDBRANCH   1   5
BRANCH   1   7
ATOM      7  C   VAL A   1      28.073  -2.751  27.307  0.00  0.00    +0.224 C 
ATOM      8  O   VAL A   1      28.104  -1.526  27.183  0.00  0.00    -0.287 OA
ENDBRANCH   1   7
TORSDOF 3
REMARK  Name = ../refined-set-2016/3ekw/3ekw_pocket.pdb
REMARK  228 active torsions:
REMARK  status: ('A' for Active; 'I' for Inactive)
REMARK    1  A    between atoms: _1  and  _3
REMARK    2  A    between atoms: _3  and  _4
REMARK    3  A    between atoms: _3  and  _6
REMARK    4  A    between atoms: _6  and  _7
REMARK    5  A    between atoms: _7  and  _8
REMARK    6  A    between atoms: _8  and  _9
REMARK    7  A    between atoms: _18  and  _20
REMARK    8  A    between atoms: _20  and  _21
REMARK    9  A    between atoms: _20  and  _23
REMARK   10  A    between atoms: _23  and  _24
REMARK   11  A    between atoms: _27  and  _29
REMARK   12  A    between atoms: _29  and  _30
REMARK   13  A    between atoms: _29  and  _32
REMARK   14  A    between atoms: _32  and  _33
REMARK   15  A    between atoms: _36  and  _38
REMARK   16  A    between atoms: _38  and  _39
REMARK   17  A    between atoms: _38  and  _41
REMARK   18  A    between atoms: _41  and  _42
REMARK   19  A    between atoms: _45  and  _47
REMARK   20  A    between atoms: _47  and  _48
REMARK   21  A    between atoms: _47  and  _50
REMARK   22  A    between atoms: _50  and  _51
REMARK   23  A    between atoms: _54  and  _56
REMARK   24  A    between atoms: _56  and  _57
REMARK   25  A    between atoms: _59  and  _61
REMARK   26  A    between atoms: _61  and  _62
REMARK   27  A    between atoms: _65  and  _67
REMARK   28  A    between atoms: _67  and  _68
REMARK   29  A    between atoms: _67  and  _70
REMARK   30  A    between atoms: _70  and  _71
REMARK   31  A    between atoms: _74  and  _76
REMARK   32  A    between atoms: _76  and  _77
REMARK   33  A    between atoms: _76  and  _79
REMARK   34  A    between atoms: _79  and  _80
REMARK   35  A    between atoms: _83  and  _85
REMARK   36  A    between atoms: _85  and  _86
REMARK   37  A    between atoms: _85  and  _88
REMARK   38  A    between atoms: _88  and  _89
REMARK   39  A    between atoms: _92  and  _94
REMARK   40  A    between atoms: _94  and  _95
REMARK   41  A    between atoms: _94  and  _97
REMARK   42  A    between atoms: _100  and  _102
REMARK   43  A    between atoms: _102  and  _103
REMARK   44  A    between atoms: _102  and  _105
REMARK   45  A    between atoms: _105  and  _106
REMARK   46  A    between atoms: _106  and  _107
REMARK   47  A    between atoms: _107  and  _108
REMARK   48  A    between atoms: _108  and  _109
REMARK   49  A    between atoms: _113  and  _115
REMARK   50  A    between atoms: _115  and  _116
REMARK   51  A    between atoms: _115  and  _118
REMARK   52  A    between atoms: _118  and  _119
REMARK   53  A    between atoms: _119  and  _120
REMARK   54  A    between atoms: _122  and  _124
REMARK   55  A    between atoms: _124  and  _125
REMARK   56  A    between atoms: _124  and  _127
REMARK   57  A    between atoms: _127  and  _128
REMARK   58  A    between atoms: _131  and  _133
REMARK   59  A    between atoms: _133  and  _134
REMARK   60  A    between atoms: _133  and  _136
REMARK   61  A    between atoms: _139  and  _141
REMARK   62  A    between atoms: _141  and  _142
REMARK   63  A    between atoms: _144  and  _146
REMARK   64  A    between atoms: _146  and  _147
REMARK   65  A    between atoms: _146  and  _149
REMARK   66  A    between atoms: _149  and  _150
REMARK   67  A    between atoms: _153  and  _155
REMARK   68  A    between atoms: _155  and  _156
REMARK   69  A    between atoms: _158  and  _160
REMARK   70  A    between atoms: _160  and  _161
REMARK   71  A    between atoms: _163  and  _165
REMARK   72  A    between atoms: _165  and  _166
REMARK   73  A    between atoms: _165  and  _168
REMARK   74  A    between atoms: _171  and  _173
REMARK   75  A    between atoms: _173  and  _174
REMARK   76  A    between atoms: _173  and  _176
REMARK   77  A    between atoms: _179  and  _181
REMARK   78  A    between atoms: _181  and  _182
REMARK   79  A    between atoms: _181  and  _184
REMARK   80  A    between atoms: _184  and  _185
REMARK   81  A    between atoms: _188  and  _190
REMARK   82  A    between atoms: _190  and  _191
REMARK   83  A    between atoms: _190  and  _193
REMARK   84  A    between atoms: _193  and  _194
REMARK   85  A    between atoms: _198  and  _199
REMARK   86  A    between atoms: _204  and  _206
REMARK   87  A    between atoms: _206  and  _207
REMARK   88  A    between atoms: _210  and  _212
REMARK   89  A    between atoms: _212  and  _213
REMARK   90  A    between atoms: _212  and  _215
REMARK   91  A    between atoms: _215  and  _216
REMARK   92  A    between atoms: _221  and  _223
REMARK   93  A    between atoms: _223  and  _224
REMARK   94  A    between atoms: _223  and  _226
REMARK   95  A    between atoms: _226  and  _227
REMARK   96  A    between atoms: _230  and  _232
REMARK   97  A    between atoms: _232  and  _233
REMARK   98  A    between atoms: _232  and  _235
REMARK   99  A    between atoms: _235  and  _236
REMARK  100  A    between atoms: _239  and  _241
REMARK  101  A    between atoms: _241  and  _242
REMARK  102  A    between atoms: _244  and  _246
REMARK  103  A    between atoms: _246  and  _247
REMARK  104  A    between atoms: _246  and  _249
REMARK  105  A    between atoms: _249  and  _250
REMARK  106  A    between atoms: _250  and  _251
REMARK  107  A    between atoms: _251  and  _252
REMARK  108  A    between atoms: _261  and  _263
REMARK  109  A    between atoms: _263  and  _264
REMARK  110  A    between atoms: _263  and  _266
REMARK  111  A    between atoms: _266  and  _267
REMARK  112  A    between atoms: _267  and  _268
REMARK  113  A    between atoms: _268  and  _269
REMARK  114  A    between atoms: _278  and  _280
REMARK  115  A    between atoms: _280  and  _281
REMARK  116  A    between atoms: _280  and  _283
REMARK  117  A    between atoms: _283  and  _284
REMARK  118  A    between atoms: _287  and  _289
REMARK  119  A    between atoms: _289  and  _290
REMARK  120  A    between atoms: _289  and  _292
REMARK  121  A    between atoms: _292  and  _293
REMARK  122  A    between atoms: _296  and  _298
REMARK  123  A    between atoms: _298  and  _299
REMARK  124  A    between atoms: _298  and  _301
REMARK  125  A    between atoms: _301  and  _302
REMARK  126  A    between atoms: _305  and  _307
REMARK  127  A    between atoms: _307  and  _308
REMARK  128  A    between atoms: _307  and  _310
REMARK  129  A    between atoms: _310  and  _311
REMARK  130  A    between atoms: _314  and  _316
REMARK  131  A    between atoms: _316  and  _317
REMARK  132  A    between atoms: _316  and  _319
REMARK  133  A    between atoms: _319  and  _320
REMARK  134  A    between atoms: _323  and  _325
REMARK  135  A    between atoms: _325  and  _326
REMARK  136  A    between atoms: _328  and  _330
REMARK  137  A    between atoms: _330  and  _331
REMARK  138  A    between atoms: _334  and  _336
REMARK  139  A    between atoms: _336  and  _337
REMARK  140  A    between atoms: _336  and  _339
REMARK  141  A    between atoms: _339  and  _340
REMARK  142  A    between atoms: _343  and  _345
REMARK  143  A    between atoms: _345  and  _346
REMARK  144  A    between atoms: _345  and  _348
REMARK  145  A    between atoms: _348  and  _349
REMARK  146  A    between atoms: _352  and  _354
REMARK  147  A    between atoms: _354  and  _355
REMARK  148  A    between atoms: _354  and  _357
REMARK  149  A    between atoms: _357  and  _358
REMARK  150  A    between atoms: _361  and  _363
REMARK  151  A    between atoms: _363  and  _364
REMARK  152  A    between atoms: _363  and  _366
REMARK  153  A    between atoms: _369  and  _371
REMARK  154  A    between atoms: _371  and  _372
REMARK  155  A    between atoms: _371  and  _374
REMARK  156  A    between atoms: _374  and  _375
REMARK  157  A    between atoms: _375  and  _376
REMARK  158  A    between atoms: _379  and  _381
REMARK  159  A    between atoms: _381  and  _382
REMARK  160  A    between atoms: _381  and  _384
REMARK  161  A    between atoms: _384  and  _385
REMARK  162  A    between atoms: _385  and  _386
REMARK  163  A    between atoms: _386  and  _387
REMARK  164  A    between atoms: _387  and  _388
REMARK  165  A    between atoms: _392  and  _394
REMARK  166  A    between atoms: _394  and  _395
REMARK  167  A    between atoms: _394  and  _397
REMARK  168  A    between atoms: _397  and  _398
REMARK  169  A    between atoms: _398  and  _399
REMARK  170  A    between atoms: _401  and  _403
REMARK  171  A    between atoms: _403  and  _404
REMARK  172  A    between atoms: _403  and  _406
REMARK  173  A    between atoms: _406  and  _407
REMARK  174  A    between atoms: _410  and  _412
REMARK  175  A    between atoms: _412  and  _413
REMARK  176  A    between atoms: _412  and  _415
REMARK  177  A    between atoms: _418  and  _420
REMARK  178  A    between atoms: _420  and  _421
REMARK  179  A    between atoms: _423  and  _425
REMARK  180  A    between atoms: _425  and  _426
REMARK  181  A    between atoms: _425  and  _428
REMARK  182  A    between atoms: _428  and  _429
REMARK  183  A    between atoms: _432  and  _434
REMARK  184  A    between atoms: _434  and  _435
REMARK  185  A    between atoms: _437  and  _439
REMARK  186  A    between atoms: _439  and  _440
REMARK  187  A    between atoms: _442  and  _444
REMARK  188  A    between atoms: _444  and  _445
REMARK  189  A    between atoms: _444  and  _447
REMARK  190  A    between atoms: _447  and  _448
REMARK  191  A    between atoms: _454  and  _456
REMARK  192  A    between atoms: _456  and  _457
REMARK  193  A    between atoms: _456  and  _459
REMARK  194  A    between atoms: _462  and  _464
REMARK  195  A    between atoms: _464  and  _465
REMARK  196  A    between atoms: _464  and  _467
REMARK  197  A    between atoms: _470  and  _472
REMARK  198  A    between atoms: _472  and  _473
REMARK  199  A    between atoms: _472  and  _475
REMARK  200  A    between atoms: _475  and  _476
REMARK  201  A    between atoms: _480  and  _481
REMARK  202  A    between atoms: _486  and  _488
REMARK  203  A    between atoms: _488  and  _489
REMARK  204  A    between atoms: _488  and  _491
REMARK  205  A    between atoms: _491  and  _492
REMARK  206  A    between atoms: _496  and  _497
REMARK  207  A    between atoms: _502  and  _504
REMARK  208  A    between atoms: _504  and  _505
REMARK  209  A    between atoms: _508  and  _510
REMARK  210  A    between atoms: _510  and  _511
REMARK  211  A    between atoms: _510  and  _513
REMARK  212  A    between atoms: _513  and  _514
REMARK  213  A    between atoms: _519  and  _521
REMARK  214  A    between atoms: _521  and  _522
REMARK  215  A    between atoms: _521  and  _524
REMARK  216  A    between atoms: _524  and  _525
REMARK  217  A    between atoms: _528  and  _530
REMARK  218  A    between atoms: _530  and  _531
REMARK  219  A    between atoms: _530  and  _533
REMARK  220  A    between atoms: _533  and  _534
REMARK  221  A    between atoms: _537  and  _539
REMARK  222  A    between atoms: _539  and  _540
REMARK  223  A    between atoms: _542  and  _544
REMARK  224  A    between atoms: _544  and  _545
REMARK  225  A    between atoms: _544  and  _547
REMARK  226  A    between atoms: _547  and  _548
REMARK  227  A    between atoms: _548  and  _549
REMARK  228  A    between atoms: _549  and  _550
REMARK                            x       y       z     vdW  Elec       q    Type
REMARK                         _______ _______ _______ _____ _____    ______ ____
ROOT
ATOM      1  CA  VAL A   1      32.710  -1.516  25.538  0.00  0.00    +0.133 C 
ENDROOT
BRANCH   1   2
ATOM      2  CB  VAL A   1      32.018  -0.832  24.338  0.00  0.00    +0.023 C 
ATOM      3  CG2 VAL A   1      31.712   0.637  24.636  0.00  0.00    +0.002 C 
ATOM      4  CG1 VAL A   1      30.752  -1.589  23.955  0.00  0.00    +0.002 C 
ENDBRANCH   1   2
BRANCH   1   5
ATOM      5  N   VAL A   1      31.799  -1.675  26.664  0.00  0.00    -0.239 NA
ATOM      6  H   VAL A   1      31.548  -0.838  27.227  0.00  0.00    +0.142 HD
ENDBRANCH   1   5
BRANCH   1   7
ATOM      7  C   VAL A   1      33.929  -0.718  25.990  0.00  0.00    +0.224 C 
ATOM      8  O   VAL A   1      34.003  -0.273  27.141  0.00  0.00    -0.287 OA
ENDBRANCH   1   7
TORSDOF 3
REMARK  Name = ../refined-set-2016/3ekw/3ekw_pocket.pdb
REMARK  228 active torsions:
REMARK  status: ('A' for Active; 'I' for Inactive)
REMARK    1  A    between atoms: _1  and  _3
REMARK    2  A    between atoms: _3  and  _4
REMARK    3  A    between atoms: _3  and  _6
REMARK    4  A    between atoms: _6  and  _7
REMARK    5  A    between atoms: _7  and  _8
REMARK    6  A    between atoms: _8  and  _9
REMARK    7  A    between atoms: _18  and  _20
REMARK    8  A    between atoms: _20  and  _21
REMARK    9  A    between atoms: _20  and  _23
REMARK   10  A    between atoms: _23  and  _24
REMARK   11  A    between atoms: _27  and  _29
REMARK   12  A    between atoms: _29  and  _30
REMARK   13  A    between atoms: _29  and  _32
REMARK   14  A    between atoms: _32  and  _33
REMARK   15  A    between atoms: _36  and  _38
REMARK   16  A    between atoms: _38  and  _39
REMARK   17  A    between atoms: _38  and  _41
REMARK   18  A    between atoms: _41  and  _42
REMARK   19  A    between atoms: _45  and  _47
REMARK   20  A    between atoms: _47  and  _48
REMARK   21  A    between atoms: _47  and  _50
REMARK   22  A    between atoms: _50  and  _51
REMARK   23  A    between atoms: _54  and  _56
REMARK   24  A    between atoms: _56  and  _57
REMARK   25  A    between atoms: _59  and  _61
REMARK   26  A    between atoms: _61  and  _62
REMARK   27  A    between atoms: _65  and  _67
REMARK   28  A    between atoms: _67  and  _68
REMARK   29  A    between atoms: _67  and  _70
REMARK   30  A    between atoms: _70  and  _71
REMARK   31  A    between atoms: _74  and  _76
REMARK   32  A    between atoms: _76  and  _77
REMARK   33  A    between atoms: _76  and  _79
REMARK   34  A    between atoms: _79  and  _80
REMARK   35  A    between atoms: _83  and  _85
REMARK   36  A    between atoms: _85  and  _86
REMARK   37  A    between atoms: _85  and  _88
REMARK   38  A    between atoms: _88  and  _89
REMARK   39  A    between atoms: _92  and  _94
REMARK   40  A    between atoms: _94  and  _95
REMARK   41  A    between atoms: _94  and  _97
REMARK   42  A    between atoms: _100  and  _102
REMARK   43  A    between atoms: _102  and  _103
REMARK   44  A    between atoms: _102  and  _105
REMARK   45  A    between atoms: _105  and  _106
REMARK   46  A    between atoms: _106  and  _107
REMARK   47  A    between atoms: _107  and  _108
REMARK   48  A    between atoms: _108  and  _109
REMARK   49  A    between atoms: _113  and  _115
REMARK   50  A    between atoms: _115  and  _116
REMARK   51  A    between atoms: _115  and  _118
REMARK   52  A    between atoms: _118  and  _119
REMARK   53  A    between atoms: _119  and  _120
REMARK   54  A    between atoms: _122  and  _124
REMARK   55  A    between atoms: _124  and  _125
REMARK   56  A    between atoms: _124  and  _127
REMARK   57  A    between atoms: _127  and  _128
REMARK   58  A    between atoms: _131  and  _133
REMARK   59  A    between atoms: _133  and  _134
REMARK   60  A    between atoms: _133  and  _136
REMARK   61  A    between atoms: _139  and  _141
REMARK   62  A    between atoms: _141  and  _142
REMARK   63  A    between atoms: _144  and  _146
REMARK   64  A    between atoms: _146  and  _147
REMARK   65  A    between atoms: _146  and  _149
REMARK   66  A    between atoms: _149  and  _150
REMARK   67  A    between atoms: _153  and  _155
REMARK   68  A    between atoms: _155  and  _156
REMARK   69  A    between atoms: _158  and  _160
REMARK   70  A    between atoms: _160  and  _161
REMARK   71  A    between atoms: _163  and  _165
REMARK   72  A    between atoms: _165  and  _166
REMARK   73  A    between atoms: _165  and  _168
REMARK   74  A    between atoms: _171  and  _173
REMARK   75  A    between atoms: _173  and  _174
REMARK   76  A    between atoms: _173  and  _176
REMARK   77  A    between atoms: _179  and  _181
REMARK   78  A    between atoms: _181  and  _182
REMARK   79  A    between atoms: _181  and  _184
REMARK   80  A    between atoms: _184  and  _185
REMARK   81  A    between atoms: _188  and  _190
REMARK   82  A    between atoms: _190  and  _191
REMARK   83  A    between atoms: _190  and  _193
REMARK   84  A    between atoms: _193  and  _194
REMARK   85  A    between atoms: _198  and  _199
REMARK   86  A    between atoms: _204  and  _206
REMARK   87  A    between atoms: _206  and  _207
REMARK   88  A    between atoms: _210  and  _212
REMARK   89  A    between atoms: _212  and  _213
REMARK   90  A    between atoms: _212  and  _215
REMARK   91  A    between atoms: _215  and  _216
REMARK   92  A    between atoms: _221  and  _223
REMARK   93  A    between atoms: _223  and  _224
REMARK   94  A    between atoms: _223  and  _226
REMARK   95  A    between atoms: _226  and  _227
REMARK   96  A    between atoms: _230  and  _232
REMARK   97  A    between atoms: _232  and  _233
REMARK   98  A    between atoms: _232  and  _235
REMARK   99  A    between atoms: _235  and  _236
REMARK  100  A    between atoms: _239  and  _241
REMARK  101  A    between atoms: _241  and  _242
REMARK  102  A    between atoms: _244  and  _246
REMARK  103  A    between atoms: _246  and  _247
REMARK  104  A    between atoms: _246  and  _249
REMARK  105  A    between atoms: _249  and  _250
REMARK  106  A    between atoms: _250  and  _251
REMARK  107  A    between atoms: _251  and  _252
REMARK  108  A    between atoms: _261  and  _263
REMARK  109  A    between atoms: _263  and  _264
REMARK  110  A    between atoms: _263  and  _266
REMARK  111  A    between atoms: _266  and  _267
REMARK  112  A    between atoms: _267  and  _268
REMARK  113  A    between atoms: _268  and  _269
REMARK  114  A    between atoms: _278  and  _280
REMARK  115  A    between atoms: _280  and  _281
REMARK  116  A    between atoms: _280  and  _283
REMARK  117  A    between atoms: _283  and  _284
REMARK  118  A    between atoms: _287  and  _289
REMARK  119  A    between atoms: _289  and  _290
REMARK  120  A    between atoms: _289  and  _292
REMARK  121  A    between atoms: _292  and  _293
REMARK  122  A    between atoms: _296  and  _298
REMARK  123  A    between atoms: _298  and  _299
REMARK  124  A    between atoms: _298  and  _301
REMARK  125  A    between atoms: _301  and  _302
REMARK  126  A    between atoms: _305  and  _307
REMARK  127  A    between atoms: _307  and  _308
REMARK  128  A    between atoms: _307  and  _310
REMARK  129  A    between atoms: _310  and  _311
REMARK  130  A    between atoms: _314  and  _316
REMARK  131  A    between atoms: _316  and  _317
REMARK  132  A    between atoms: _316  and  _319
REMARK  133  A    between atoms: _319  and  _320
REMARK  134  A    between atoms: _323  and  _325
REMARK  135  A    between atoms: _325  and  _326
REMARK  136  A    between atoms: _328  and  _330
REMARK  137  A    between atoms: _330  and  _331
REMARK  138  A    between atoms: _334  and  _336
REMARK  139  A    between atoms: _336  and  _337
REMARK  140  A    between atoms: _336  and  _339
REMARK  141  A    between atoms: _339  and  _340
REMARK  142  A    between atoms: _343  and  _345
REMARK  143  A    between atoms: _345  and  _346
REMARK  144  A    between atoms: _345  and  _348
REMARK  145  A    between atoms: _348  and  _349
REMARK  146  A    between atoms: _352  and  _354
REMARK  147  A    between atoms: _354  and  _355
REMARK  148  A    between atoms: _354  and  _357
REMARK  149  A    between atoms: _357  and  _358
REMARK  150  A    between atoms: _361  and  _363
REMARK  151  A    between atoms: _363  and  _364
REMARK  152  A    between atoms: _363  and  _366
REMARK  153  A    between atoms: _369  and  _371
REMARK  154  A    between atoms: _371  and  _372
REMARK  155  A    between atoms: _371  and  _374
REMARK  156  A    between atoms: _374  and  _375
REMARK  157  A    between atoms: _375  and  _376
REMARK  158  A    between atoms: _379  and  _381
REMARK  159  A    between atoms: _381  and  _382
REMARK  160  A    between atoms: _381  and  _384
REMARK  161  A    between atoms: _384  and  _385
REMARK  162  A    between atoms: _385  and  _386
REMARK  163  A    between atoms: _386  and  _387
REMARK  164  A    between atoms: _387  and  _388
REMARK  165  A    between atoms: _392  and  _394
REMARK  166  A    between atoms: _394  and  _395
REMARK  167  A    between atoms: _394  and  _397
REMARK  168  A    between atoms: _397  and  _398
REMARK  169  A    between atoms: _398  and  _399
REMARK  170  A    between atoms: _401  and  _403
REMARK  171  A    between atoms: _403  and  _404
REMARK  172  A    between atoms: _403  and  _406
REMARK  173  A    between atoms: _406  and  _407
REMARK  174  A    between atoms: _410  and  _412
REMARK  175  A    between atoms: _412  and  _413
REMARK  176  A    between atoms: _412  and  _415
REMARK  177  A    between atoms: _418  and  _420
REMARK  178  A    between atoms: _420  and  _421
REMARK  179  A    between atoms: _423  and  _425
REMARK  180  A    between atoms: _425  and  _426
REMARK  181  A    between atoms: _425  and  _428
REMARK  182  A    between atoms: _428  and  _429
REMARK  183  A    between atoms: _432  and  _434
REMARK  184  A    between atoms: _434  and  _435
REMARK  185  A    between atoms: _437  and  _439
REMARK  186  A    between atoms: _439  and  _440
REMARK  187  A    between atoms: _442  and  _444
REMARK  188  A    between atoms: _444  and  _445
REMARK  189  A    between atoms: _444  and  _447
REMARK  190  A    between atoms: _447  and  _448
REMARK  191  A    between atoms: _454  and  _456
REMARK  192  A    between atoms: _456  and  _457
REMARK  193  A    between atoms: _456  and  _459
REMARK  194  A    between atoms: _462  and  _464
REMARK  195  A    between atoms: _464  and  _465
REMARK  196  A    between atoms: _464  and  _467
REMARK  197  A    between atoms: _470  and  _472
REMARK  198  A    between atoms: _472  and  _473
REMARK  199  A    between atoms: _472  and  _475
REMARK  200  A    between atoms: _475  and  _476
REMARK  201  A    between atoms: _480  and  _481
REMARK  202  A    between atoms: _486  and  _488
REMARK  203  A    between atoms: _488  and  _489
REMARK  204  A    between atoms: _488  and  _491
REMARK  205  A    between atoms: _491  and  _492
REMARK  206  A    between atoms: _496  and  _497
REMARK  207  A    between atoms: _502  and  _504
REMARK  208  A    between atoms: _504  and  _505
REMARK  209  A    between atoms: _508  and  _510
REMARK  210  A    between atoms: _510  and  _511
REMARK  211  A    between atoms: _510  and  _513
REMARK  212  A    between atoms: _513  and  _514
REMARK  213  A    between atoms: _519  and  _521
REMARK  214  A    between atoms: _521  and  _522
REMARK  215  A    between atoms: _521  and  _524
REMARK  216  A    between atoms: _524  and  _525
REMARK  217  A    between atoms: _528  and  _530
REMARK  218  A    between atoms: _530  and  _531
REMARK  219  A    between atoms: _530  and  _533
REMARK  220  A    between atoms: _533  and  _534
REMARK  221  A    between atoms: _537  and  _539
REMARK  222  A    between atoms: _539  and  _540
REMARK  223  A    between atoms: _542  and  _544
REMARK  224  A    between atoms: _544  and  _545
REMARK  225  A    between atoms: _544  and  _547
REMARK  226  A    between atoms: _547  and  _548
REMARK  227  A    between atoms: _548  and  _549
REMARK  228  A    between atoms: _549  and  _550
REMARK                            x       y       z     vdW  Elec       q    Type
REMARK                         _______ _______ _______ _____ _____    ______ ____
ROOT
ATOM      1  CA  LEU A   1      33.871   1.748  20.600  0.00  0.00    +0.133 C 
ENDROOT
BRANCH   1   2
ATOM      2  N   LEU A   1      34.094   2.587  19.431  0.00  0.00    -0.239 NA
ATOM      3  H   LEU A   1      33.317   2.722  18.753  0.00  0.00    +0.142 HD
ENDBRANCH   1   2
BRANCH   1   4
ATOM      4  C   LEU A   1      34.129   0.302  20.194  0.00  0.00    +0.224 C 
ATOM      5  O   LEU A   1      33.807  -0.089  19.072  0.00  0.00    -0.287 OA
ENDBRANCH   1   4
BRANCH   1   6
ATOM      6  CB  LEU A   1      32.423   1.890  21.087  0.00  0.00    +0.025 C 
BRANCH   6   7
ATOM      7  CG  LEU A   1      31.962   3.328  21.352  0.00  0.00    +0.002 C 
ATOM      8  CD2 LEU A   1      32.928   4.040  22.303  0.00  0.00    +0.000 C 
ATOM      9  CD1 LEU A   1      30.547   3.362  21.917  0.00  0.00    +0.000 C 
ENDBRANCH   6   7
ENDBRANCH   1   6
TORSDOF 4
REMARK  Name = ../refined-set-2016/3ekw/3ekw_pocket.pdb
REMARK  228 active torsions:
REMARK  status: ('A' for Active; 'I' for Inactive)
REMARK    1  A    between atoms: _1  and  _3
REMARK    2  A    between atoms: _3  and  _4
REMARK    3  A    between atoms: _3  and  _6
REMARK    4  A    between atoms: _6  and  _7
REMARK    5  A    between atoms: _7  and  _8
REMARK    6  A    between atoms: _8  and  _9
REMARK    7  A    between atoms: _18  and  _20
REMARK    8  A    between atoms: _20  and  _21
REMARK    9  A    between atoms: _20  and  _23
REMARK   10  A    between atoms: _23  and  _24
REMARK   11  A    between atoms: _27  and  _29
REMARK   12  A    between atoms: _29  and  _30
REMARK   13  A    between atoms: _29  and  _32
REMARK   14  A    between atoms: _32  and  _33
REMARK   15  A    between atoms: _36  and  _38
REMARK   16  A    between atoms: _38  and  _39
REMARK   17  A    between atoms: _38  and  _41
REMARK   18  A    between atoms: _41  and  _42
REMARK   19  A    between atoms: _45  and  _47
REMARK   20  A    between atoms: _47  and  _48
REMARK   21  A    between atoms: _47  and  _50
REMARK   22  A    between atoms: _50  and  _51
REMARK   23  A    between atoms: _54  and  _56
REMARK   24  A    between atoms: _56  and  _57
REMARK   25  A    between atoms: _59  and  _61
REMARK   26  A    between atoms: _61  and  _62
REMARK   27  A    between atoms: _65  and  _67
REMARK   28  A    between atoms: _67  and  _68
REMARK   29  A    between atoms: _67  and  _70
REMARK   30  A    between atoms: _70  and  _71
REMARK   31  A    between atoms: _74  and  _76
REMARK   32  A    between atoms: _76  and  _77
REMARK   33  A    between atoms: _76  and  _79
REMARK   34  A    between atoms: _79  and  _80
REMARK   35  A    between atoms: _83  and  _85
REMARK   36  A    between atoms: _85  and  _86
REMARK   37  A    between atoms: _85  and  _88
REMARK   38  A    between atoms: _88  and  _89
REMARK   39  A    between atoms: _92  and  _94
REMARK   40  A    between atoms: _94  and  _95
REMARK   41  A    between atoms: _94  and  _97
REMARK   42  A    between atoms: _100  and  _102
REMARK   43  A    between atoms: _102  and  _103
REMARK   44  A    between atoms: _102  and  _105
REMARK   45  A    between atoms: _105  and  _106
REMARK   46  A    between atoms: _106  and  _107
REMARK   47  A    between atoms: _107  and  _108
REMARK   48  A    between atoms: _108  and  _109
REMARK   49  A    between atoms: _113  and  _115
REMARK   50  A    between atoms: _115  and  _116
REMARK   51  A    between atoms: _115  and  _118
REMARK   52  A    between atoms: _118  and  _119
REMARK   53  A    between atoms: _119  and  _120
REMARK   54  A    between atoms: _122  and  _124
REMARK   55  A    between atoms: _124  and  _125
REMARK   56  A    between atoms: _124  and  _127
REMARK   57  A    between atoms: _127  and  _128
REMARK   58  A    between atoms: _131  and  _133
REMARK   59  A    between atoms: _133  and  _134
REMARK   60  A    between atoms: _133  and  _136
REMARK   61  A    between atoms: _139  and  _141
REMARK   62  A    between atoms: _141  and  _142
REMARK   63  A    between atoms: _144  and  _146
REMARK   64  A    between atoms: _146  and  _147
REMARK   65  A    between atoms: _146  and  _149
REMARK   66  A    between atoms: _149  and  _150
REMARK   67  A    between atoms: _153  and  _155
REMARK   68  A    between atoms: _155  and  _156
REMARK   69  A    between atoms: _158  and  _160
REMARK   70  A    between atoms: _160  and  _161
REMARK   71  A    between atoms: _163  and  _165
REMARK   72  A    between atoms: _165  and  _166
REMARK   73  A    between atoms: _165  and  _168
REMARK   74  A    between atoms: _171  and  _173
REMARK   75  A    between atoms: _173  and  _174
REMARK   76  A    between atoms: _173  and  _176
REMARK   77  A    between atoms: _179  and  _181
REMARK   78  A    between atoms: _181  and  _182
REMARK   79  A    between atoms: _181  and  _184
REMARK   80  A    between atoms: _184  and  _185
REMARK   81  A    between atoms: _188  and  _190
REMARK   82  A    between atoms: _190  and  _191
REMARK   83  A    between atoms: _190  and  _193
REMARK   84  A    between atoms: _193  and  _194
REMARK   85  A    between atoms: _198  and  _199
REMARK   86  A    between atoms: _204  and  _206
REMARK   87  A    between atoms: _206  and  _207
REMARK   88  A    between atoms: _210  and  _212
REMARK   89  A    between atoms: _212  and  _213
REMARK   90  A    between atoms: _212  and  _215
REMARK   91  A    between atoms: _215  and  _216
REMARK   92  A    between atoms: _221  and  _223
REMARK   93  A    between atoms: _223  and  _224
REMARK   94  A    between atoms: _223  and  _226
REMARK   95  A    between atoms: _226  and  _227
REMARK   96  A    between atoms: _230  and  _232
REMARK   97  A    between atoms: _232  and  _233
REMARK   98  A    between atoms: _232  and  _235
REMARK   99  A    between atoms: _235  and  _236
REMARK  100  A    between atoms: _239  and  _241
REMARK  101  A    between atoms: _241  and  _242
REMARK  102  A    between atoms: _244  and  _246
REMARK  103  A    between atoms: _246  and  _247
REMARK  104  A    between atoms: _246  and  _249
REMARK  105  A    between atoms: _249  and  _250
REMARK  106  A    between atoms: _250  and  _251
REMARK  107  A    between atoms: _251  and  _252
REMARK  108  A    between atoms: _261  and  _263
REMARK  109  A    between atoms: _263  and  _264
REMARK  110  A    between atoms: _263  and  _266
REMARK  111  A    between atoms: _266  and  _267
REMARK  112  A    between atoms: _267  and  _268
REMARK  113  A    between atoms: _268  and  _269
REMARK  114  A    between atoms: _278  and  _280
REMARK  115  A    between atoms: _280  and  _281
REMARK  116  A    between atoms: _280  and  _283
REMARK  117  A    between atoms: _283  and  _284
REMARK  118  A    between atoms: _287  and  _289
REMARK  119  A    between atoms: _289  and  _290
REMARK  120  A    between atoms: _289  and  _292
REMARK  121  A    between atoms: _292  and  _293
REMARK  122  A    between atoms: _296  and  _298
REMARK  123  A    between atoms: _298  and  _299
REMARK  124  A    between atoms: _298  and  _301
REMARK  125  A    between atoms: _301  and  _302
REMARK  126  A    between atoms: _305  and  _307
REMARK  127  A    between atoms: _307  and  _308
REMARK  128  A    between atoms: _307  and  _310
REMARK  129  A    between atoms: _310  and  _311
REMARK  130  A    between atoms: _314  and  _316
REMARK  131  A    between atoms: _316  and  _317
REMARK  132  A    between atoms: _316  and  _319
REMARK  133  A    between atoms: _319  and  _320
REMARK  134  A    between atoms: _323  and  _325
REMARK  135  A    between atoms: _325  and  _326
REMARK  136  A    between atoms: _328  and  _330
REMARK  137  A    between atoms: _330  and  _331
REMARK  138  A    between atoms: _334  and  _336
REMARK  139  A    between atoms: _336  and  _337
REMARK  140  A    between atoms: _336  and  _339
REMARK  141  A    between atoms: _339  and  _340
REMARK  142  A    between atoms: _343  and  _345
REMARK  143  A    between atoms: _345  and  _346
REMARK  144  A    between atoms: _345  and  _348
REMARK  145  A    between atoms: _348  and  _349
REMARK  146  A    between atoms: _352  and  _354
REMARK  147  A    between atoms: _354  and  _355
REMARK  148  A    between atoms: _354  and  _357
REMARK  149  A    between atoms: _357  and  _358
REMARK  150  A    between atoms: _361  and  _363
REMARK  151  A    between atoms: _363  and  _364
REMARK  152  A    between atoms: _363  and  _366
REMARK  153  A    between atoms: _369  and  _371
REMARK  154  A    between atoms: _371  and  _372
REMARK  155  A    between atoms: _371  and  _374
REMARK  156  A    between atoms: _374  and  _375
REMARK  157  A    between atoms: _375  and  _376
REMARK  158  A    between atoms: _379  and  _381
REMARK  159  A    between atoms: _381  and  _382
REMARK  160  A    between atoms: _381  and  _384
REMARK  161  A    between atoms: _384  and  _385
REMARK  162  A    between atoms: _385  and  _386
REMARK  163  A    between atoms: _386  and  _387
REMARK  164  A    between atoms: _387  and  _388
REMARK  165  A    between atoms: _392  and  _394
REMARK  166  A    between atoms: _394  and  _395
REMARK  167  A    between atoms: _394  and  _397
REMARK  168  A    between atoms: _397  and  _398
REMARK  169  A    between atoms: _398  and  _399
REMARK  170  A    between atoms: _401  and  _403
REMARK  171  A    between atoms: _403  and  _404
REMARK  172  A    between atoms: _403  and  _406
REMARK  173  A    between atoms: _406  and  _407
REMARK  174  A    between atoms: _410  and  _412
REMARK  175  A    between atoms: _412  and  _413
REMARK  176  A    between atoms: _412  and  _415
REMARK  177  A    between atoms: _418  and  _420
REMARK  178  A    between atoms: _420  and  _421
REMARK  179  A    between atoms: _423  and  _425
REMARK  180  A    between atoms: _425  and  _426
REMARK  181  A    between atoms: _425  and  _428
REMARK  182  A    between atoms: _428  and  _429
REMARK  183  A    between atoms: _432  and  _434
REMARK  184  A    between atoms: _434  and  _435
REMARK  185  A    between atoms: _437  and  _439
REMARK  186  A    between atoms: _439  and  _440
REMARK  187  A    between atoms: _442  and  _444
REMARK  188  A    between atoms: _444  and  _445
REMARK  189  A    between atoms: _444  and  _447
REMARK  190  A    between atoms: _447  and  _448
REMARK  191  A    between atoms: _454  and  _456
REMARK  192  A    between atoms: _456  and  _457
REMARK  193  A    between atoms: _456  and  _459
REMARK  194  A    between atoms: _462  and  _464
REMARK  195  A    between atoms: _464  and  _465
REMARK  196  A    between atoms: _464  and  _467
REMARK  197  A    between atoms: _470  and  _472
REMARK  198  A    between atoms: _472  and  _473
REMARK  199  A    between atoms: _472  and  _475
REMARK  200  A    between atoms: _475  and  _476
REMARK  201  A    between atoms: _480  and  _481
REMARK  202  A    between atoms: _486  and  _488
REMARK  203  A    between atoms: _488  and  _489
REMARK  204  A    between atoms: _488  and  _491
REMARK  205  A    between atoms: _491  and  _492
REMARK  206  A    between atoms: _496  and  _497
REMARK  207  A    between atoms: _502  and  _504
REMARK  208  A    between atoms: _504  and  _505
REMARK  209  A    between atoms: _508  and  _510
REMARK  210  A    between atoms: _510  and  _511
REMARK  211  A    between atoms: _510  and  _513
REMARK  212  A    between atoms: _513  and  _514
REMARK  213  A    between atoms: _519  and  _521
REMARK  214  A    between atoms: _521  and  _522
REMARK  215  A    between atoms: _521  and  _524
REMARK  216  A    between atoms: _524  and  _525
REMARK  217  A    between atoms: _528  and  _530
REMARK  218  A    between atoms: _530  and  _531
REMARK  219  A    between atoms: _530  and  _533
REMARK  220  A    between atoms: _533  and  _534
REMARK  221  A    between atoms: _537  and  _539
REMARK  222  A    between atoms: _539  and  _540
REMARK  223  A    between atoms: _542  and  _544
REMARK  224  A    between atoms: _544  and  _545
REMARK  225  A    between atoms: _544  and  _547
REMARK  226  A    between atoms: _547  and  _548
REMARK  227  A    between atoms: _548  and  _549
REMARK  228  A    between atoms: _549  and  _550
REMARK                            x       y       z     vdW  Elec       q    Type
REMARK                         _______ _______ _______ _____ _____    ______ ____
ROOT
ATOM      1  CA  ILE A   5      28.186  -0.727  13.354  0.00  0.00    +0.149 C 
ENDROOT
BRANCH   1   3
ATOM      2  C   ASN A   4      29.087  -2.983  12.909  0.00  0.00    +0.241 C 
ATOM      3  N   ILE A   5      29.150  -1.809  13.538  0.00  0.00    -0.297 N 
ATOM      4  H   ILE A   5      29.935  -1.654  14.202  0.00  0.00    +0.150 HD
ATOM      5  O   ASN A   4      28.390  -3.207  11.910  0.00  0.00    -0.273 OA
BRANCH   2   6
ATOM      6  CA  ASN A   4      29.983  -4.079  13.461  0.00  0.00    +0.158 C 
BRANCH   6   9
ATOM      7  C   ALA A   3      28.229  -5.304  14.612  0.00  0.00    +0.241 C 
ATOM      8  O   ALA A   3      28.100  -4.425  15.460  0.00  0.00    -0.273 OA
ATOM      9  N   ASN A   4      29.172  -5.278  13.673  0.00  0.00    -0.297 N 
ATOM     10  H   ASN A   4      29.334  -6.119  13.084  0.00  0.00    +0.150 HD
BRANCH   7  11
ATOM     11  CA  ALA A   3      27.277  -6.486  14.590  0.00  0.00    +0.149 C 
ATOM     12  CB  ALA A   3      25.996  -6.079  13.924  0.00  0.00    +0.031 C 
BRANCH  11  14
ATOM     13  C   PRO A   2      26.634  -8.167  16.229  0.00  0.00    +0.241 C 
ATOM     14  N   ALA A   3      27.015  -6.920  15.954  0.00  0.00    -0.297 N 
ATOM     15  H   ALA A   3      27.128  -6.240  16.733  0.00  0.00    +0.150 HD
ATOM     16  O   PRO A   2      26.476  -9.042  15.375  0.00  0.00    -0.273 OA
BRANCH  13  22
ATOM     17  C   THR A   1      28.132  -7.351  18.810  0.00  0.00    +0.244 C 
ATOM     18  N   PRO A   2      26.808  -7.529  18.667  0.00  0.00    -0.272 N 
ATOM     19  CD  PRO A   2      25.676  -6.954  19.410  0.00  0.00    +0.094 C 
ATOM     20  CG  PRO A   2      24.636  -8.012  19.261  0.00  0.00    +0.024 C 
ATOM     21  CB  PRO A   2      24.835  -8.562  17.911  0.00  0.00    +0.031 C 
ATOM     22  CA  PRO A   2      26.352  -8.505  17.681  0.00  0.00    +0.152 C 
ATOM     23  O   THR A   1      28.961  -8.072  18.244  0.00  0.00    -0.273 OA
BRANCH  17  24
ATOM     24  CA  THR A   1      28.580  -6.219  19.724  0.00  0.00    +0.172 C 
BRANCH  24  25
ATOM     25  N   THR A   1      29.764  -6.629  20.464  0.00  0.00    -0.236 NA
ATOM     26  H   THR A   1      30.700  -6.315  20.138  0.00  0.00    +0.142 HD
ENDBRANCH  24  25
BRANCH  24  27
ATOM     27  CB  THR A   1      28.833  -4.980  18.853  0.00  0.00    +0.135 C 
ATOM     28  CG2 THR A   1      30.035  -5.183  17.950  0.00  0.00    +0.034 C 
BRANCH  27  29
ATOM     29  OG1 THR A   1      27.673  -4.729  18.055  0.00  0.00    -0.383 OA
ATOM     30  HG1 THR A   1      27.829  -3.931  17.490  0.00  0.00    +0.210 HD
ENDBRANCH  27  29
ENDBRANCH  24  27
ENDBRANCH  17  24
ENDBRANCH  13  22
ENDBRANCH  11  14
ENDBRANCH   7  11
ENDBRANCH   6   9
BRANCH   6  31
ATOM     31  CB  ASN A   4      31.071  -4.312  12.417  0.00  0.00    +0.114 C 
BRANCH  31  32
ATOM     32  CG  ASN A   4      32.238  -5.145  12.917  0.00  0.00    +0.222 C 
ATOM     33  OD1 ASN A   4      32.485  -5.272  14.124  0.00  0.00    -0.275 OA
ATOM     34  ND2 ASN A   4      32.967  -5.722  11.972  0.00  0.00    -0.329 N 
ATOM     35 HD21 ASN A   4      33.785  -6.310  12.232  0.00  0.00    +0.145 HD
ATOM     36 HD22 ASN A   4      32.721  -5.587  10.971  0.00  0.00    +0.145 HD
ENDBRANCH  31  32
ENDBRANCH   6  31
ENDBRANCH   2   6
ENDBRANCH   1   3
BRANCH   1  37
ATOM     37  C   ILE A   5      28.925   0.587  13.155  0.00  0.00    +0.241 C 
ATOM     38  O   ILE A   5      29.717   0.972  14.011  0.00  0.00    -0.273 OA
ATOM     39  N   ILE A   6      28.633   1.266  12.049  0.00  0.00    -0.297 N 
ATOM     40  H   ILE A   6      28.069   0.793  11.314  0.00  0.00    +0.150 HD
BRANCH  39  41
ATOM     41  CA  ILE A   6      29.064   2.642  11.815  0.00  0.00    +0.149 C 
BRANCH  41  42
ATOM     42  C   ILE A   6      27.907   3.568  12.183  0.00  0.00    +0.241 C 
ATOM     43  N   GLY A   7      28.061   4.306  13.276  0.00  0.00    -0.295 N 
ATOM     44  H   GLY A   7      28.951   4.242  13.811  0.00  0.00    +0.150 HD
ATOM     45  O   ILE A   6      26.881   3.578  11.502  0.00  0.00    -0.273 OA
BRANCH  43  46
ATOM     46  CA  GLY A   7      27.013   5.204  13.744  0.00  0.00    +0.176 C 
BRANCH  46  47
ATOM     47  C   GLY A   7      27.187   6.634  13.271  0.00  0.00    +0.243 C 
ATOM     48  N   ARG A   8      26.291   7.494  13.752  0.00  0.00    -0.298 N 
ATOM     49  H   ARG A   8      25.649   7.186  14.510  0.00  0.00    +0.150 HD
ATOM     50  O   GLY A   7      28.113   6.979  12.516  0.00  0.00    -0.273 OA
BRANCH  48  51
ATOM     51  CA  ARG A   8      26.187   8.864  13.241  0.00  0.00    +0.137 C 
BRANCH  51  52
ATOM     52  C   ARG A   8      27.449   9.687  13.434  0.00  0.00    +0.227 C 
ATOM     53  O   ARG A   8      27.734  10.589  12.632  0.00  0.00    -0.286 OA
ENDBRANCH  51  52
BRANCH  51  54
ATOM     54  CB  ARG A   8      24.994   9.594  13.860  0.00  0.00    +0.031 C 
BRANCH  54  55
ATOM     55  CG  ARG A   8      23.678   8.996  13.403  0.00  0.00    +0.045 C 
BRANCH  55  56
ATOM     56  CD  ARG A   8      22.470   9.793  13.869  0.00  0.00    +0.174 C 
BRANCH  56  57
ATOM     57  NE  ARG A   8      22.387   9.862  15.330  0.00  0.00    -0.265 N 
ATOM     58  CZ  ARG A   8      22.821  10.874  16.084  0.00  0.00    +0.342 C 
ATOM     59  NH2 ARG A   8      22.697  10.788  17.398  0.00  0.00    -0.292 N 
ATOM     60 HH21 ARG A   8      23.029  11.566  18.004  0.00  0.00    +0.255 HD
ATOM     61 HH22 ARG A   8      22.268   9.943  17.826  0.00  0.00    +0.255 HD
ATOM     62  NH1 ARG A   8      23.369  11.977  15.578  0.00  0.00    -0.292 N 
ATOM     63 HH11 ARG A   8      23.691  12.736  16.212  0.00  0.00    +0.255 HD
ATOM     64 HH12 ARG A   8      23.475  12.080  14.549  0.00  0.00    +0.255 HD
ATOM     65  HE  ARG A   8      21.953   9.054  15.821  0.00  0.00    +0.259 HD
ENDBRANCH  56  57
ENDBRANCH  55  56
ENDBRANCH  54  55
ENDBRANCH  51  54
ENDBRANCH  48  51
ENDBRANCH  46  47
ENDBRANCH  43  46
ENDBRANCH  41  42
BRANCH  41  66
ATOM     66  CB  ILE A   6      29.482   2.894  10.341  0.00  0.00    +0.027 C 
ATOM     67  CG2 ILE A   6      30.025   4.299  10.181  0.00  0.00    +0.002 C 
BRANCH  66  68
ATOM     68  CG1 ILE A   6      30.503   1.837   9.892  0.00  0.00    +0.002 C 
ATOM     69  CD1 ILE A   6      31.784   1.793  10.708  0.00  0.00    +0.000 C 
ENDBRANCH  66  68
ENDBRANCH  41  66
ENDBRANCH  39  41
ENDBRANCH   1  37
BRANCH   1  70
ATOM     70  CB  ILE A   5      27.314  -0.601  14.637  0.00  0.00    +0.027 C 
ATOM     71  CG2 ILE A   5      26.612   0.746  14.744  0.00  0.00    +0.002 C 
BRANCH  70  72
ATOM     72  CG1 ILE A   5      26.298  -1.752  14.712  0.00  0.00    +0.002 C 
ATOM     73  CD1 ILE A   5      25.753  -2.012  16.102  0.00  0.00    +0.000 C 
ENDBRANCH  70  72
ENDBRANCH   1  70
TORSDOF 27
REMARK  Name = ../refined-set-2016/3ekw/3ekw_pocket.pdb
REMARK  228 active torsions:
REMARK  status: ('A' for Active; 'I' for Inactive)
REMARK    1  A    between atoms: _1  and  _3
REMARK    2  A    between atoms: _3  and  _4
REMARK    3  A    between atoms: _3  and  _6
REMARK    4  A    between atoms: _6  and  _7
REMARK    5  A    between atoms: _7  and  _8
REMARK    6  A    between atoms: _8  and  _9
REMARK    7  A    between atoms: _18  and  _20
REMARK    8  A    between atoms: _20  and  _21
REMARK    9  A    between atoms: _20  and  _23
REMARK   10  A    between atoms: _23  and  _24
REMARK   11  A    between atoms: _27  and  _29
REMARK   12  A    between atoms: _29  and  _30
REMARK   13  A    between atoms: _29  and  _32
REMARK   14  A    between atoms: _32  and  _33
REMARK   15  A    between atoms: _36  and  _38
REMARK   16  A    between atoms: _38  and  _39
REMARK   17  A    between atoms: _38  and  _41
REMARK   18  A    between atoms: _41  and  _42
REMARK   19  A    between atoms: _45  and  _47
REMARK   20  A    between atoms: _47  and  _48
REMARK   21  A    between atoms: _47  and  _50
REMARK   22  A    between atoms: _50  and  _51
REMARK   23  A    between atoms: _54  and  _56
REMARK   24  A    between atoms: _56  and  _57
REMARK   25  A    between atoms: _59  and  _61
REMARK   26  A    between atoms: _61  and  _62
REMARK   27  A    between atoms: _65  and  _67
REMARK   28  A    between atoms: _67  and  _68
REMARK   29  A    between atoms: _67  and  _70
REMARK   30  A    between atoms: _70  and  _71
REMARK   31  A    between atoms: _74  and  _76
REMARK   32  A    between atoms: _76  and  _77
REMARK   33  A    between atoms: _76  and  _79
REMARK   34  A    between atoms: _79  and  _80
REMARK   35  A    between atoms: _83  and  _85
REMARK   36  A    between atoms: _85  and  _86
REMARK   37  A    between atoms: _85  and  _88
REMARK   38  A    between atoms: _88  and  _89
REMARK   39  A    between atoms: _92  and  _94
REMARK   40  A    between atoms: _94  and  _95
REMARK   41  A    between atoms: _94  and  _97
REMARK   42  A    between atoms: _100  and  _102
REMARK   43  A    between atoms: _102  and  _103
REMARK   44  A    between atoms: _102  and  _105
REMARK   45  A    between atoms: _105  and  _106
REMARK   46  A    between atoms: _106  and  _107
REMARK   47  A    between atoms: _107  and  _108
REMARK   48  A    between atoms: _108  and  _109
REMARK   49  A    between atoms: _113  and  _115
REMARK   50  A    between atoms: _115  and  _116
REMARK   51  A    between atoms: _115  and  _118
REMARK   52  A    between atoms: _118  and  _119
REMARK   53  A    between atoms: _119  and  _120
REMARK   54  A    between atoms: _122  and  _124
REMARK   55  A    between atoms: _124  and  _125
REMARK   56  A    between atoms: _124  and  _127
REMARK   57  A    between atoms: _127  and  _128
REMARK   58  A    between atoms: _131  and  _133
REMARK   59  A    between atoms: _133  and  _134
REMARK   60  A    between atoms: _133  and  _136
REMARK   61  A    between atoms: _139  and  _141
REMARK   62  A    between atoms: _141  and  _142
REMARK   63  A    between atoms: _144  and  _146
REMARK   64  A    between atoms: _146  and  _147
REMARK   65  A    between atoms: _146  and  _149
REMARK   66  A    between atoms: _149  and  _150
REMARK   67  A    between atoms: _153  and  _155
REMARK   68  A    between atoms: _155  and  _156
REMARK   69  A    between atoms: _158  and  _160
REMARK   70  A    between atoms: _160  and  _161
REMARK   71  A    between atoms: _163  and  _165
REMARK   72  A    between atoms: _165  and  _166
REMARK   73  A    between atoms: _165  and  _168
REMARK   74  A    between atoms: _171  and  _173
REMARK   75  A    between atoms: _173  and  _174
REMARK   76  A    between atoms: _173  and  _176
REMARK   77  A    between atoms: _179  and  _181
REMARK   78  A    between atoms: _181  and  _182
REMARK   79  A    between atoms: _181  and  _184
REMARK   80  A    between atoms: _184  and  _185
REMARK   81  A    between atoms: _188  and  _190
REMARK   82  A    between atoms: _190  and  _191
REMARK   83  A    between atoms: _190  and  _193
REMARK   84  A    between atoms: _193  and  _194
REMARK   85  A    between atoms: _198  and  _199
REMARK   86  A    between atoms: _204  and  _206
REMARK   87  A    between atoms: _206  and  _207
REMARK   88  A    between atoms: _210  and  _212
REMARK   89  A    between atoms: _212  and  _213
REMARK   90  A    between atoms: _212  and  _215
REMARK   91  A    between atoms: _215  and  _216
REMARK   92  A    between atoms: _221  and  _223
REMARK   93  A    between atoms: _223  and  _224
REMARK   94  A    between atoms: _223  and  _226
REMARK   95  A    between atoms: _226  and  _227
REMARK   96  A    between atoms: _230  and  _232
REMARK   97  A    between atoms: _232  and  _233
REMARK   98  A    between atoms: _232  and  _235
REMARK   99  A    between atoms: _235  and  _236
REMARK  100  A    between atoms: _239  and  _241
REMARK  101  A    between atoms: _241  and  _242
REMARK  102  A    between atoms: _244  and  _246
REMARK  103  A    between atoms: _246  and  _247
REMARK  104  A    between atoms: _246  and  _249
REMARK  105  A    between atoms: _249  and  _250
REMARK  106  A    between atoms: _250  and  _251
REMARK  107  A    between atoms: _251  and  _252
REMARK  108  A    between atoms: _261  and  _263
REMARK  109  A    between atoms: _263  and  _264
REMARK  110  A    between atoms: _263  and  _266
REMARK  111  A    between atoms: _266  and  _267
REMARK  112  A    between atoms: _267  and  _268
REMARK  113  A    between atoms: _268  and  _269
REMARK  114  A    between atoms: _278  and  _280
REMARK  115  A    between atoms: _280  and  _281
REMARK  116  A    between atoms: _280  and  _283
REMARK  117  A    between atoms: _283  and  _284
REMARK  118  A    between atoms: _287  and  _289
REMARK  119  A    between atoms: _289  and  _290
REMARK  120  A    between atoms: _289  and  _292
REMARK  121  A    between atoms: _292  and  _293
REMARK  122  A    between atoms: _296  and  _298
REMARK  123  A    between atoms: _298  and  _299
REMARK  124  A    between atoms: _298  and  _301
REMARK  125  A    between atoms: _301  and  _302
REMARK  126  A    between atoms: _305  and  _307
REMARK  127  A    between atoms: _307  and  _308
REMARK  128  A    between atoms: _307  and  _310
REMARK  129  A    between atoms: _310  and  _311
REMARK  130  A    between atoms: _314  and  _316
REMARK  131  A    between atoms: _316  and  _317
REMARK  132  A    between atoms: _316  and  _319
REMARK  133  A    between atoms: _319  and  _320
REMARK  134  A    between atoms: _323  and  _325
REMARK  135  A    between atoms: _325  and  _326
REMARK  136  A    between atoms: _328  and  _330
REMARK  137  A    between atoms: _330  and  _331
REMARK  138  A    between atoms: _334  and  _336
REMARK  139  A    between atoms: _336  and  _337
REMARK  140  A    between atoms: _336  and  _339
REMARK  141  A    between atoms: _339  and  _340
REMARK  142  A    between atoms: _343  and  _345
REMARK  143  A    between atoms: _345  and  _346
REMARK  144  A    between atoms: _345  and  _348
REMARK  145  A    between atoms: _348  and  _349
REMARK  146  A    between atoms: _352  and  _354
REMARK  147  A    between atoms: _354  and  _355
REMARK  148  A    between atoms: _354  and  _357
REMARK  149  A    between atoms: _357  and  _358
REMARK  150  A    between atoms: _361  and  _363
REMARK  151  A    between atoms: _363  and  _364
REMARK  152  A    between atoms: _363  and  _366
REMARK  153  A    between atoms: _369  and  _371
REMARK  154  A    between atoms: _371  and  _372
REMARK  155  A    between atoms: _371  and  _374
REMARK  156  A    between atoms: _374  and  _375
REMARK  157  A    between atoms: _375  and  _376
REMARK  158  A    between atoms: _379  and  _381
REMARK  159  A    between atoms: _381  and  _382
REMARK  160  A    between atoms: _381  and  _384
REMARK  161  A    between atoms: _384  and  _385
REMARK  162  A    between atoms: _385  and  _386
REMARK  163  A    between atoms: _386  and  _387
REMARK  164  A    between atoms: _387  and  _388
REMARK  165  A    between atoms: _392  and  _394
REMARK  166  A    between atoms: _394  and  _395
REMARK  167  A    between atoms: _394  and  _397
REMARK  168  A    between atoms: _397  and  _398
REMARK  169  A    between atoms: _398  and  _399
REMARK  170  A    between atoms: _401  and  _403
REMARK  171  A    between atoms: _403  and  _404
REMARK  172  A    between atoms: _403  and  _406
REMARK  173  A    between atoms: _406  and  _407
REMARK  174  A    between atoms: _410  and  _412
REMARK  175  A    between atoms: _412  and  _413
REMARK  176  A    between atoms: _412  and  _415
REMARK  177  A    between atoms: _418  and  _420
REMARK  178  A    between atoms: _420  and  _421
REMARK  179  A    between atoms: _423  and  _425
REMARK  180  A    between atoms: _425  and  _426
REMARK  181  A    between atoms: _425  and  _428
REMARK  182  A    between atoms: _428  and  _429
REMARK  183  A    between atoms: _432  and  _434
REMARK  184  A    between atoms: _434  and  _435
REMARK  185  A    between atoms: _437  and  _439
REMARK  186  A    between atoms: _439  and  _440
REMARK  187  A    between atoms: _442  and  _444
REMARK  188  A    between atoms: _444  and  _445
REMARK  189  A    between atoms: _444  and  _447
REMARK  190  A    between atoms: _447  and  _448
REMARK  191  A    between atoms: _454  and  _456
REMARK  192  A    between atoms: _456  and  _457
REMARK  193  A    between atoms: _456  and  _459
REMARK  194  A    between atoms: _462  and  _464
REMARK  195  A    between atoms: _464  and  _465
REMARK  196  A    between atoms: _464  and  _467
REMARK  197  A    between atoms: _470  and  _472
REMARK  198  A    between atoms: _472  and  _473
REMARK  199  A    between atoms: _472  and  _475
REMARK  200  A    between atoms: _475  and  _476
REMARK  201  A    between atoms: _480  and  _481
REMARK  202  A    between atoms: _486  and  _488
REMARK  203  A    between atoms: _488  and  _489
REMARK  204  A    between atoms: _488  and  _491
REMARK  205  A    between atoms: _491  and  _492
REMARK  206  A    between atoms: _496  and  _497
REMARK  207  A    between atoms: _502  and  _504
REMARK  208  A    between atoms: _504  and  _505
REMARK  209  A    between atoms: _508  and  _510
REMARK  210  A    between atoms: _510  and  _511
REMARK  211  A    between atoms: _510  and  _513
REMARK  212  A    between atoms: _513  and  _514
REMARK  213  A    between atoms: _519  and  _521
REMARK  214  A    between atoms: _521  and  _522
REMARK  215  A    between atoms: _521  and  _524
REMARK  216  A    between atoms: _524  and  _525
REMARK  217  A    between atoms: _528  and  _530
REMARK  218  A    between atoms: _530  and  _531
REMARK  219  A    between atoms: _530  and  _533
REMARK  220  A    between atoms: _533  and  _534
REMARK  221  A    between atoms: _537  and  _539
REMARK  222  A    between atoms: _539  and  _540
REMARK  223  A    between atoms: _542  and  _544
REMARK  224  A    between atoms: _544  and  _545
REMARK  225  A    between atoms: _544  and  _547
REMARK  226  A    between atoms: _547  and  _548
REMARK  227  A    between atoms: _548  and  _549
REMARK  228  A    between atoms: _549  and  _550
REMARK                            x       y       z     vdW  Elec       q    Type
REMARK                         _______ _______ _______ _____ _____    ______ ____
ROOT
ATOM      1  NE  ARG A   1      19.625   9.531  20.190  0.00  0.00    -0.265 N 
ATOM      2  CZ  ARG A   1      19.507   9.676  21.508  0.00  0.00    +0.342 C 
ATOM      3  NH2 ARG A   1      20.500   9.305  22.304  0.00  0.00    -0.292 N 
ATOM      4 HH21 ARG A   1      20.410   9.417  23.334  0.00  0.00    +0.255 HD
ATOM      5 HH22 ARG A   1      21.369   8.902  21.898  0.00  0.00    +0.255 HD
ATOM      6  NH1 ARG A   1      18.406  10.182  22.055  0.00  0.00    -0.292 N 
ATOM      7 HH11 ARG A   1      18.339  10.285  23.088  0.00  0.00    +0.255 HD
ATOM      8 HH12 ARG A   1      17.612  10.475  21.450  0.00  0.00    +0.255 HD
ATOM      9  HE  ARG A   1      20.507   9.114  19.829  0.00  0.00    +0.259 HD
ENDROOT
BRANCH   1  10
ATOM     10  CD  ARG A   1      18.608   9.914  19.211  0.00  0.00    +0.174 C 
BRANCH  10  11
ATOM     11  CG  ARG A   1      19.250  10.301  17.893  0.00  0.00    +0.045 C 
BRANCH  11  12
ATOM     12  CB  ARG A   1      18.239  10.844  16.907  0.00  0.00    +0.029 C 
BRANCH  12  13
ATOM     13  CA  ARG A   1      18.877  11.403  15.640  0.00  0.00    +0.133 C 
BRANCH  13  14
ATOM     14  N   ARG A   1      19.607  12.622  15.950  0.00  0.00    -0.239 NA
ATOM     15  H   ARG A   1      19.642  12.968  16.930  0.00  0.00    +0.142 HD
ENDBRANCH  13  14
BRANCH  13  16
ATOM     16  C   ARG A   1      17.822  11.693  14.569  0.00  0.00    +0.224 C 
ATOM     17  O   ARG A   1      17.079  12.678  14.706  0.00  0.00    -0.287 OA
ENDBRANCH  13  16
ENDBRANCH  12  13
ENDBRANCH  11  12
ENDBRANCH  10  11
ENDBRANCH   1  10
TORSDOF 6
REMARK  Name = ../refined-set-2016/3ekw/3ekw_pocket.pdb
REMARK  228 active torsions:
REMARK  status: ('A' for Active; 'I' for Inactive)
REMARK    1  A    between atoms: _1  and  _3
REMARK    2  A    between atoms: _3  and  _4
REMARK    3  A    between atoms: _3  and  _6
REMARK    4  A    between atoms: _6  and  _7
REMARK    5  A    between atoms: _7  and  _8
REMARK    6  A    between atoms: _8  and  _9
REMARK    7  A    between atoms: _18  and  _20
REMARK    8  A    between atoms: _20  and  _21
REMARK    9  A    between atoms: _20  and  _23
REMARK   10  A    between atoms: _23  and  _24
REMARK   11  A    between atoms: _27  and  _29
REMARK   12  A    between atoms: _29  and  _30
REMARK   13  A    between atoms: _29  and  _32
REMARK   14  A    between atoms: _32  and  _33
REMARK   15  A    between atoms: _36  and  _38
REMARK   16  A    between atoms: _38  and  _39
REMARK   17  A    between atoms: _38  and  _41
REMARK   18  A    between atoms: _41  and  _42
REMARK   19  A    between atoms: _45  and  _47
REMARK   20  A    between atoms: _47  and  _48
REMARK   21  A    between atoms: _47  and  _50
REMARK   22  A    between atoms: _50  and  _51
REMARK   23  A    between atoms: _54  and  _56
REMARK   24  A    between atoms: _56  and  _57
REMARK   25  A    between atoms: _59  and  _61
REMARK   26  A    between atoms: _61  and  _62
REMARK   27  A    between atoms: _65  and  _67
REMARK   28  A    between atoms: _67  and  _68
REMARK   29  A    between atoms: _67  and  _70
REMARK   30  A    between atoms: _70  and  _71
REMARK   31  A    between atoms: _74  and  _76
REMARK   32  A    between atoms: _76  and  _77
REMARK   33  A    between atoms: _76  and  _79
REMARK   34  A    between atoms: _79  and  _80
REMARK   35  A    between atoms: _83  and  _85
REMARK   36  A    between atoms: _85  and  _86
REMARK   37  A    between atoms: _85  and  _88
REMARK   38  A    between atoms: _88  and  _89
REMARK   39  A    between atoms: _92  and  _94
REMARK   40  A    between atoms: _94  and  _95
REMARK   41  A    between atoms: _94  and  _97
REMARK   42  A    between atoms: _100  and  _102
REMARK   43  A    between atoms: _102  and  _103
REMARK   44  A    between atoms: _102  and  _105
REMARK   45  A    between atoms: _105  and  _106
REMARK   46  A    between atoms: _106  and  _107
REMARK   47  A    between atoms: _107  and  _108
REMARK   48  A    between atoms: _108  and  _109
REMARK   49  A    between atoms: _113  and  _115
REMARK   50  A    between atoms: _115  and  _116
REMARK   51  A    between atoms: _115  and  _118
REMARK   52  A    between atoms: _118  and  _119
REMARK   53  A    between atoms: _119  and  _120
REMARK   54  A    between atoms: _122  and  _124
REMARK   55  A    between atoms: _124  and  _125
REMARK   56  A    between atoms: _124  and  _127
REMARK   57  A    between atoms: _127  and  _128
REMARK   58  A    between atoms: _131  and  _133
REMARK   59  A    between atoms: _133  and  _134
REMARK   60  A    between atoms: _133  and  _136
REMARK   61  A    between atoms: _139  and  _141
REMARK   62  A    between atoms: _141  and  _142
REMARK   63  A    between atoms: _144  and  _146
REMARK   64  A    between atoms: _146  and  _147
REMARK   65  A    between atoms: _146  and  _149
REMARK   66  A    between atoms: _149  and  _150
REMARK   67  A    between atoms: _153  and  _155
REMARK   68  A    between atoms: _155  and  _156
REMARK   69  A    between atoms: _158  and  _160
REMARK   70  A    between atoms: _160  and  _161
REMARK   71  A    between atoms: _163  and  _165
REMARK   72  A    between atoms: _165  and  _166
REMARK   73  A    between atoms: _165  and  _168
REMARK   74  A    between atoms: _171  and  _173
REMARK   75  A    between atoms: _173  and  _174
REMARK   76  A    between atoms: _173  and  _176
REMARK   77  A    between atoms: _179  and  _181
REMARK   78  A    between atoms: _181  and  _182
REMARK   79  A    between atoms: _181  and  _184
REMARK   80  A    between atoms: _184  and  _185
REMARK   81  A    between atoms: _188  and  _190
REMARK   82  A    between atoms: _190  and  _191
REMARK   83  A    between atoms: _190  and  _193
REMARK   84  A    between atoms: _193  and  _194
REMARK   85  A    between atoms: _198  and  _199
REMARK   86  A    between atoms: _204  and  _206
REMARK   87  A    between atoms: _206  and  _207
REMARK   88  A    between atoms: _210  and  _212
REMARK   89  A    between atoms: _212  and  _213
REMARK   90  A    between atoms: _212  and  _215
REMARK   91  A    between atoms: _215  and  _216
REMARK   92  A    between atoms: _221  and  _223
REMARK   93  A    between atoms: _223  and  _224
REMARK   94  A    between atoms: _223  and  _226
REMARK   95  A    between atoms: _226  and  _227
REMARK   96  A    between atoms: _230  and  _232
REMARK   97  A    between atoms: _232  and  _233
REMARK   98  A    between atoms: _232  and  _235
REMARK   99  A    between atoms: _235  and  _236
REMARK  100  A    between atoms: _239  and  _241
REMARK  101  A    between atoms: _241  and  _242
REMARK  102  A    between atoms: _244  and  _246
REMARK  103  A    between atoms: _246  and  _247
REMARK  104  A    between atoms: _246  and  _249
REMARK  105  A    between atoms: _249  and  _250
REMARK  106  A    between atoms: _250  and  _251
REMARK  107  A    between atoms: _251  and  _252
REMARK  108  A    between atoms: _261  and  _263
REMARK  109  A    between atoms: _263  and  _264
REMARK  110  A    between atoms: _263  and  _266
REMARK  111  A    between atoms: _266  and  _267
REMARK  112  A    between atoms: _267  and  _268
REMARK  113  A    between atoms: _268  and  _269
REMARK  114  A    between atoms: _278  and  _280
REMARK  115  A    between atoms: _280  and  _281
REMARK  116  A    between atoms: _280  and  _283
REMARK  117  A    between atoms: _283  and  _284
REMARK  118  A    between atoms: _287  and  _289
REMARK  119  A    between atoms: _289  and  _290
REMARK  120  A    between atoms: _289  and  _292
REMARK  121  A    between atoms: _292  and  _293
REMARK  122  A    between atoms: _296  and  _298
REMARK  123  A    between atoms: _298  and  _299
REMARK  124  A    between atoms: _298  and  _301
REMARK  125  A    between atoms: _301  and  _302
REMARK  126  A    between atoms: _305  and  _307
REMARK  127  A    between atoms: _307  and  _308
REMARK  128  A    between atoms: _307  and  _310
REMARK  129  A    between atoms: _310  and  _311
REMARK  130  A    between atoms: _314  and  _316
REMARK  131  A    between atoms: _316  and  _317
REMARK  132  A    between atoms: _316  and  _319
REMARK  133  A    between atoms: _319  and  _320
REMARK  134  A    between atoms: _323  and  _325
REMARK  135  A    between atoms: _325  and  _326
REMARK  136  A    between atoms: _328  and  _330
REMARK  137  A    between atoms: _330  and  _331
REMARK  138  A    between atoms: _334  and  _336
REMARK  139  A    between atoms: _336  and  _337
REMARK  140  A    between atoms: _336  and  _339
REMARK  141  A    between atoms: _339  and  _340
REMARK  142  A    between atoms: _343  and  _345
REMARK  143  A    between atoms: _345  and  _346
REMARK  144  A    between atoms: _345  and  _348
REMARK  145  A    between atoms: _348  and  _349
REMARK  146  A    between atoms: _352  and  _354
REMARK  147  A    between atoms: _354  and  _355
REMARK  148  A    between atoms: _354  and  _357
REMARK  149  A    between atoms: _357  and  _358
REMARK  150  A    between atoms: _361  and  _363
REMARK  151  A    between atoms: _363  and  _364
REMARK  152  A    between atoms: _363  and  _366
REMARK  153  A    between atoms: _369  and  _371
REMARK  154  A    between atoms: _371  and  _372
REMARK  155  A    between atoms: _371  and  _374
REMARK  156  A    between atoms: _374  and  _375
REMARK  157  A    between atoms: _375  and  _376
REMARK  158  A    between atoms: _379  and  _381
REMARK  159  A    between atoms: _381  and  _382
REMARK  160  A    between atoms: _381  and  _384
REMARK  161  A    between atoms: _384  and  _385
REMARK  162  A    between atoms: _385  and  _386
REMARK  163  A    between atoms: _386  and  _387
REMARK  164  A    between atoms: _387  and  _388
REMARK  165  A    between atoms: _392  and  _394
REMARK  166  A    between atoms: _394  and  _395
REMARK  167  A    between atoms: _394  and  _397
REMARK  168  A    between atoms: _397  and  _398
REMARK  169  A    between atoms: _398  and  _399
REMARK  170  A    between atoms: _401  and  _403
REMARK  171  A    between atoms: _403  and  _404
REMARK  172  A    between atoms: _403  and  _406
REMARK  173  A    between atoms: _406  and  _407
REMARK  174  A    between atoms: _410  and  _412
REMARK  175  A    between atoms: _412  and  _413
REMARK  176  A    between atoms: _412  and  _415
REMARK  177  A    between atoms: _418  and  _420
REMARK  178  A    between atoms: _420  and  _421
REMARK  179  A    between atoms: _423  and  _425
REMARK  180  A    between atoms: _425  and  _426
REMARK  181  A    between atoms: _425  and  _428
REMARK  182  A    between atoms: _428  and  _429
REMARK  183  A    between atoms: _432  and  _434
REMARK  184  A    between atoms: _434  and  _435
REMARK  185  A    between atoms: _437  and  _439
REMARK  186  A    between atoms: _439  and  _440
REMARK  187  A    between atoms: _442  and  _444
REMARK  188  A    between atoms: _444  and  _445
REMARK  189  A    between atoms: _444  and  _447
REMARK  190  A    between atoms: _447  and  _448
REMARK  191  A    between atoms: _454  and  _456
REMARK  192  A    between atoms: _456  and  _457
REMARK  193  A    between atoms: _456  and  _459
REMARK  194  A    between atoms: _462  and  _464
REMARK  195  A    between atoms: _464  and  _465
REMARK  196  A    between atoms: _464  and  _467
REMARK  197  A    between atoms: _470  and  _472
REMARK  198  A    between atoms: _472  and  _473
REMARK  199  A    between atoms: _472  and  _475
REMARK  200  A    between atoms: _475  and  _476
REMARK  201  A    between atoms: _480  and  _481
REMARK  202  A    between atoms: _486  and  _488
REMARK  203  A    between atoms: _488  and  _489
REMARK  204  A    between atoms: _488  and  _491
REMARK  205  A    between atoms: _491  and  _492
REMARK  206  A    between atoms: _496  and  _497
REMARK  207  A    between atoms: _502  and  _504
REMARK  208  A    between atoms: _504  and  _505
REMARK  209  A    between atoms: _508  and  _510
REMARK  210  A    between atoms: _510  and  _511
REMARK  211  A    between atoms: _510  and  _513
REMARK  212  A    between atoms: _513  and  _514
REMARK  213  A    between atoms: _519  and  _521
REMARK  214  A    between atoms: _521  and  _522
REMARK  215  A    between atoms: _521  and  _524
REMARK  216  A    between atoms: _524  and  _525
REMARK  217  A    between atoms: _528  and  _530
REMARK  218  A    between atoms: _530  and  _531
REMARK  219  A    between atoms: _530  and  _533
REMARK  220  A    between atoms: _533  and  _534
REMARK  221  A    between atoms: _537  and  _539
REMARK  222  A    between atoms: _539  and  _540
REMARK  223  A    between atoms: _542  and  _544
REMARK  224  A    between atoms: _544  and  _545
REMARK  225  A    between atoms: _544  and  _547
REMARK  226  A    between atoms: _547  and  _548
REMARK  227  A    between atoms: _548  and  _549
REMARK  228  A    between atoms: _549  and  _550
REMARK                            x       y       z     vdW  Elec       q    Type
REMARK                         _______ _______ _______ _____ _____    ______ ____
ROOT
ATOM      1  CA  ILE A   1      13.408  11.208  14.246  0.00  0.00    +0.133 C 
ENDROOT
BRANCH   1   2
ATOM      2  N   ILE A   1      14.731  11.489  13.700  0.00  0.00    -0.239 NA
ATOM      3  H   ILE A   1      15.205  12.371  13.981  0.00  0.00    +0.142 HD
ENDBRANCH   1   2
BRANCH   1   4
ATOM      4  CB  ILE A   1      13.352  11.577  15.747  0.00  0.00    +0.023 C 
ATOM      5  CG2 ILE A   1      11.923  11.516  16.268  0.00  0.00    +0.002 C 
BRANCH   4   6
ATOM      6  CG1 ILE A   1      14.243  10.621  16.546  0.00  0.00    +0.002 C 
ATOM      7  CD1 ILE A   1      14.552  11.061  17.957  0.00  0.00    +0.000 C 
ENDBRANCH   4   6
ENDBRANCH   1   4
BRANCH   1   8
ATOM      8  C   ILE A   1      12.367  11.972  13.434  0.00  0.00    +0.224 C 
ATOM      9  O   ILE A   1      12.506  13.175  13.184  0.00  0.00    -0.287 OA
ENDBRANCH   1   8
TORSDOF 4
REMARK  Name = ../refined-set-2016/3ekw/3ekw_pocket.pdb
REMARK  228 active torsions:
REMARK  status: ('A' for Active; 'I' for Inactive)
REMARK    1  A    between atoms: _1  and  _3
REMARK    2  A    between atoms: _3  and  _4
REMARK    3  A    between atoms: _3  and  _6
REMARK    4  A    between atoms: _6  and  _7
REMARK    5  A    between atoms: _7  and  _8
REMARK    6  A    between atoms: _8  and  _9
REMARK    7  A    between atoms: _18  and  _20
REMARK    8  A    between atoms: _20  and  _21
REMARK    9  A    between atoms: _20  and  _23
REMARK   10  A    between atoms: _23  and  _24
REMARK   11  A    between atoms: _27  and  _29
REMARK   12  A    between atoms: _29  and  _30
REMARK   13  A    between atoms: _29  and  _32
REMARK   14  A    between atoms: _32  and  _33
REMARK   15  A    between atoms: _36  and  _38
REMARK   16  A    between atoms: _38  and  _39
REMARK   17  A    between atoms: _38  and  _41
REMARK   18  A    between atoms: _41  and  _42
REMARK   19  A    between atoms: _45  and  _47
REMARK   20  A    between atoms: _47  and  _48
REMARK   21  A    between atoms: _47  and  _50
REMARK   22  A    between atoms: _50  and  _51
REMARK   23  A    between atoms: _54  and  _56
REMARK   24  A    between atoms: _56  and  _57
REMARK   25  A    between atoms: _59  and  _61
REMARK   26  A    between atoms: _61  and  _62
REMARK   27  A    between atoms: _65  and  _67
REMARK   28  A    between atoms: _67  and  _68
REMARK   29  A    between atoms: _67  and  _70
REMARK   30  A    between atoms: _70  and  _71
REMARK   31  A    between atoms: _74  and  _76
REMARK   32  A    between atoms: _76  and  _77
REMARK   33  A    between atoms: _76  and  _79
REMARK   34  A    between atoms: _79  and  _80
REMARK   35  A    between atoms: _83  and  _85
REMARK   36  A    between atoms: _85  and  _86
REMARK   37  A    between atoms: _85  and  _88
REMARK   38  A    between atoms: _88  and  _89
REMARK   39  A    between atoms: _92  and  _94
REMARK   40  A    between atoms: _94  and  _95
REMARK   41  A    between atoms: _94  and  _97
REMARK   42  A    between atoms: _100  and  _102
REMARK   43  A    between atoms: _102  and  _103
REMARK   44  A    between atoms: _102  and  _105
REMARK   45  A    between atoms: _105  and  _106
REMARK   46  A    between atoms: _106  and  _107
REMARK   47  A    between atoms: _107  and  _108
REMARK   48  A    between atoms: _108  and  _109
REMARK   49  A    between atoms: _113  and  _115
REMARK   50  A    between atoms: _115  and  _116
REMARK   51  A    between atoms: _115  and  _118
REMARK   52  A    between atoms: _118  and  _119
REMARK   53  A    between atoms: _119  and  _120
REMARK   54  A    between atoms: _122  and  _124
REMARK   55  A    between atoms: _124  and  _125
REMARK   56  A    between atoms: _124  and  _127
REMARK   57  A    between atoms: _127  and  _128
REMARK   58  A    between atoms: _131  and  _133
REMARK   59  A    between atoms: _133  and  _134
REMARK   60  A    between atoms: _133  and  _136
REMARK   61  A    between atoms: _139  and  _141
REMARK   62  A    between atoms: _141  and  _142
REMARK   63  A    between atoms: _144  and  _146
REMARK   64  A    between atoms: _146  and  _147
REMARK   65  A    between atoms: _146  and  _149
REMARK   66  A    between atoms: _149  and  _150
REMARK   67  A    between atoms: _153  and  _155
REMARK   68  A    between atoms: _155  and  _156
REMARK   69  A    between atoms: _158  and  _160
REMARK   70  A    between atoms: _160  and  _161
REMARK   71  A    between atoms: _163  and  _165
REMARK   72  A    between atoms: _165  and  _166
REMARK   73  A    between atoms: _165  and  _168
REMARK   74  A    between atoms: _171  and  _173
REMARK   75  A    between atoms: _173  and  _174
REMARK   76  A    between atoms: _173  and  _176
REMARK   77  A    between atoms: _179  and  _181
REMARK   78  A    between atoms: _181  and  _182
REMARK   79  A    between atoms: _181  and  _184
REMARK   80  A    between atoms: _184  and  _185
REMARK   81  A    between atoms: _188  and  _190
REMARK   82  A    between atoms: _190  and  _191
REMARK   83  A    between atoms: _190  and  _193
REMARK   84  A    between atoms: _193  and  _194
REMARK   85  A    between atoms: _198  and  _199
REMARK   86  A    between atoms: _204  and  _206
REMARK   87  A    between atoms: _206  and  _207
REMARK   88  A    between atoms: _210  and  _212
REMARK   89  A    between atoms: _212  and  _213
REMARK   90  A    between atoms: _212  and  _215
REMARK   91  A    between atoms: _215  and  _216
REMARK   92  A    between atoms: _221  and  _223
REMARK   93  A    between atoms: _223  and  _224
REMARK   94  A    between atoms: _223  and  _226
REMARK   95  A    between atoms: _226  and  _227
REMARK   96  A    between atoms: _230  and  _232
REMARK   97  A    between atoms: _232  and  _233
REMARK   98  A    between atoms: _232  and  _235
REMARK   99  A    between atoms: _235  and  _236
REMARK  100  A    between atoms: _239  and  _241
REMARK  101  A    between atoms: _241  and  _242
REMARK  102  A    between atoms: _244  and  _246
REMARK  103  A    between atoms: _246  and  _247
REMARK  104  A    between atoms: _246  and  _249
REMARK  105  A    between atoms: _249  and  _250
REMARK  106  A    between atoms: _250  and  _251
REMARK  107  A    between atoms: _251  and  _252
REMARK  108  A    between atoms: _261  and  _263
REMARK  109  A    between atoms: _263  and  _264
REMARK  110  A    between atoms: _263  and  _266
REMARK  111  A    between atoms: _266  and  _267
REMARK  112  A    between atoms: _267  and  _268
REMARK  113  A    between atoms: _268  and  _269
REMARK  114  A    between atoms: _278  and  _280
REMARK  115  A    between atoms: _280  and  _281
REMARK  116  A    between atoms: _280  and  _283
REMARK  117  A    between atoms: _283  and  _284
REMARK  118  A    between atoms: _287  and  _289
REMARK  119  A    between atoms: _289  and  _290
REMARK  120  A    between atoms: _289  and  _292
REMARK  121  A    between atoms: _292  and  _293
REMARK  122  A    between atoms: _296  and  _298
REMARK  123  A    between atoms: _298  and  _299
REMARK  124  A    between atoms: _298  and  _301
REMARK  125  A    between atoms: _301  and  _302
REMARK  126  A    between atoms: _305  and  _307
REMARK  127  A    between atoms: _307  and  _308
REMARK  128  A    between atoms: _307  and  _310
REMARK  129  A    between atoms: _310  and  _311
REMARK  130  A    between atoms: _314  and  _316
REMARK  131  A    between atoms: _316  and  _317
REMARK  132  A    between atoms: _316  and  _319
REMARK  133  A    between atoms: _319  and  _320
REMARK  134  A    between atoms: _323  and  _325
REMARK  135  A    between atoms: _325  and  _326
REMARK  136  A    between atoms: _328  and  _330
REMARK  137  A    between atoms: _330  and  _331
REMARK  138  A    between atoms: _334  and  _336
REMARK  139  A    between atoms: _336  and  _337
REMARK  140  A    between atoms: _336  and  _339
REMARK  141  A    between atoms: _339  and  _340
REMARK  142  A    between atoms: _343  and  _345
REMARK  143  A    between atoms: _345  and  _346
REMARK  144  A    between atoms: _345  and  _348
REMARK  145  A    between atoms: _348  and  _349
REMARK  146  A    between atoms: _352  and  _354
REMARK  147  A    between atoms: _354  and  _355
REMARK  148  A    between atoms: _354  and  _357
REMARK  149  A    between atoms: _357  and  _358
REMARK  150  A    between atoms: _361  and  _363
REMARK  151  A    between atoms: _363  and  _364
REMARK  152  A    between atoms: _363  and  _366
REMARK  153  A    between atoms: _369  and  _371
REMARK  154  A    between atoms: _371  and  _372
REMARK  155  A    between atoms: _371  and  _374
REMARK  156  A    between atoms: _374  and  _375
REMARK  157  A    between atoms: _375  and  _376
REMARK  158  A    between atoms: _379  and  _381
REMARK  159  A    between atoms: _381  and  _382
REMARK  160  A    between atoms: _381  and  _384
REMARK  161  A    between atoms: _384  and  _385
REMARK  162  A    between atoms: _385  and  _386
REMARK  163  A    between atoms: _386  and  _387
REMARK  164  A    between atoms: _387  and  _388
REMARK  165  A    between atoms: _392  and  _394
REMARK  166  A    between atoms: _394  and  _395
REMARK  167  A    between atoms: _394  and  _397
REMARK  168  A    between atoms: _397  and  _398
REMARK  169  A    between atoms: _398  and  _399
REMARK  170  A    between atoms: _401  and  _403
REMARK  171  A    between atoms: _403  and  _404
REMARK  172  A    between atoms: _403  and  _406
REMARK  173  A    between atoms: _406  and  _407
REMARK  174  A    between atoms: _410  and  _412
REMARK  175  A    between atoms: _412  and  _413
REMARK  176  A    between atoms: _412  and  _415
REMARK  177  A    between atoms: _418  and  _420
REMARK  178  A    between atoms: _420  and  _421
REMARK  179  A    between atoms: _423  and  _425
REMARK  180  A    between atoms: _425  and  _426
REMARK  181  A    between atoms: _425  and  _428
REMARK  182  A    between atoms: _428  and  _429
REMARK  183  A    between atoms: _432  and  _434
REMARK  184  A    between atoms: _434  and  _435
REMARK  185  A    between atoms: _437  and  _439
REMARK  186  A    between atoms: _439  and  _440
REMARK  187  A    between atoms: _442  and  _444
REMARK  188  A    between atoms: _444  and  _445
REMARK  189  A    between atoms: _444  and  _447
REMARK  190  A    between atoms: _447  and  _448
REMARK  191  A    between atoms: _454  and  _456
REMARK  192  A    between atoms: _456  and  _457
REMARK  193  A    between atoms: _456  and  _459
REMARK  194  A    between atoms: _462  and  _464
REMARK  195  A    between atoms: _464  and  _465
REMARK  196  A    between atoms: _464  and  _467
REMARK  197  A    between atoms: _470  and  _472
REMARK  198  A    between atoms: _472  and  _473
REMARK  199  A    between atoms: _472  and  _475
REMARK  200  A    between atoms: _475  and  _476
REMARK  201  A    between atoms: _480  and  _481
REMARK  202  A    between atoms: _486  and  _488
REMARK  203  A    between atoms: _488  and  _489
REMARK  204  A    between atoms: _488  and  _491
REMARK  205  A    between atoms: _491  and  _492
REMARK  206  A    between atoms: _496  and  _497
REMARK  207  A    between atoms: _502  and  _504
REMARK  208  A    between atoms: _504  and  _505
REMARK  209  A    between atoms: _508  and  _510
REMARK  210  A    between atoms: _510  and  _511
REMARK  211  A    between atoms: _510  and  _513
REMARK  212  A    between atoms: _513  and  _514
REMARK  213  A    between atoms: _519  and  _521
REMARK  214  A    between atoms: _521  and  _522
REMARK  215  A    between atoms: _521  and  _524
REMARK  216  A    between atoms: _524  and  _525
REMARK  217  A    between atoms: _528  and  _530
REMARK  218  A    between atoms: _530  and  _531
REMARK  219  A    between atoms: _530  and  _533
REMARK  220  A    between atoms: _533  and  _534
REMARK  221  A    between atoms: _537  and  _539
REMARK  222  A    between atoms: _539  and  _540
REMARK  223  A    between atoms: _542  and  _544
REMARK  224  A    between atoms: _544  and  _545
REMARK  225  A    between atoms: _544  and  _547
REMARK  226  A    between atoms: _547  and  _548
REMARK  227  A    between atoms: _548  and  _549
REMARK  228  A    between atoms: _549  and  _550
REMARK                            x       y       z     vdW  Elec       q    Type
REMARK                         _______ _______ _______ _____ _____    ______ ____
ROOT
ATOM      1  C   GLY A   5      19.583  -1.556  11.541  0.00  0.00    +0.243 C 
ATOM      2  O   GLY A   5      19.957  -2.463  12.279  0.00  0.00    -0.273 OA
ATOM      3  N   ALA A   6      18.309  -1.347  11.209  0.00  0.00    -0.297 N 
ATOM      4  H   ALA A   6      18.080  -0.555  10.575  0.00  0.00    +0.150 HD
ENDROOT
BRANCH   3   5
ATOM      5  CA  ALA A   6      17.225  -2.188  11.702  0.00  0.00    +0.149 C 
ATOM      6  CB  ALA A   6      16.185  -1.331  12.397  0.00  0.00    +0.031 C 
BRANCH   5   7
ATOM      7  C   ALA A   6      16.583  -2.977  10.555  0.00  0.00    +0.241 C 
ATOM      8  N   ASP A   7      16.574  -4.303  10.667  0.00  0.00    -0.297 N 
ATOM      9  H   ASP A   7      17.053  -4.756  11.472  0.00  0.00    +0.150 HD
ATOM     10  O   ALA A   6      16.114  -2.391   9.582  0.00  0.00    -0.273 OA
BRANCH   8  11
ATOM     11  CA  ASP A   7      15.897  -5.128   9.669  0.00  0.00    +0.160 C 
BRANCH  11  12
ATOM     12  C   ASP A   7      14.389  -4.893   9.711  0.00  0.00    +0.241 C 
ATOM     13  N   ASP A   8      13.889  -4.742  10.938  0.00  0.00    -0.297 N 
ATOM     14  H   ASP A   8      14.567  -4.631  11.719  0.00  0.00    +0.150 HD
ATOM     15  O   ASP A   7      13.707  -4.918   8.675  0.00  0.00    -0.273 OA
BRANCH  13  16
ATOM     16  CA  ASP A   8      12.471  -4.719  11.277  0.00  0.00    +0.160 C 
BRANCH  16  17
ATOM     17  C   ASP A   8      12.084  -3.382  11.905  0.00  0.00    +0.241 C 
ATOM     18  O   ASP A   8      12.950  -2.638  12.386  0.00  0.00    -0.273 OA
ATOM     19  N   THR A   9      10.776  -3.120  11.904  0.00  0.00    -0.295 N 
ATOM     20  H   THR A   9      10.143  -3.791  11.423  0.00  0.00    +0.150 HD
BRANCH  19  21
ATOM     21  CA  THR A   9      10.182  -1.952  12.536  0.00  0.00    +0.176 C 
BRANCH  21  22
ATOM     22  C   THR A   9       9.677  -2.366  13.912  0.00  0.00    +0.243 C 
ATOM     23  N   VAL A  10      10.076  -1.608  14.931  0.00  0.00    -0.298 N 
ATOM     24  H   VAL A  10      10.586  -0.726  14.724  0.00  0.00    +0.150 HD
ATOM     25  O   THR A   9       8.945  -3.354  14.037  0.00  0.00    -0.273 OA
BRANCH  23  26
ATOM     26  CA  VAL A  10       9.829  -1.960  16.322  0.00  0.00    +0.137 C 
BRANCH  26  27
ATOM     27  CB  VAL A  10      11.133  -2.365  17.048  0.00  0.00    +0.026 C 
ATOM     28  CG2 VAL A  10      10.818  -2.892  18.453  0.00  0.00    +0.002 C 
ATOM     29  CG1 VAL A  10      11.884  -3.420  16.246  0.00  0.00    +0.002 C 
ENDBRANCH  26  27
BRANCH  26  30
ATOM     30  C   VAL A  10       9.234  -0.756  17.039  0.00  0.00    +0.227 C 
ATOM     31  O   VAL A  10       9.860   0.305  17.126  0.00  0.00    -0.286 OA
ENDBRANCH  26  30
ENDBRANCH  23  26
ENDBRANCH  21  22
BRANCH  21  32
ATOM     32  CB  THR A   9       9.043  -1.404  11.650  0.00  0.00    +0.137 C 
ATOM     33  CG2 THR A   9       8.201  -0.349  12.365  0.00  0.00    +0.034 C 
BRANCH  32  34
ATOM     34  OG1 THR A   9       9.616  -0.846  10.459  0.00  0.00    -0.382 OA
ATOM     35  HG1 THR A   9      10.113  -1.550   9.972  0.00  0.00    +0.210 HD
ENDBRANCH  32  34
ENDBRANCH  21  32
ENDBRANCH  19  21
ENDBRANCH  16  17
BRANCH  16  36
ATOM     36  CB  ASP A   8      12.176  -5.833  12.292  0.00  0.00    +0.143 C 
BRANCH  36  37
ATOM     37  CG  ASP A   8      12.403  -7.224  11.724  0.00  0.00    +0.367 C 
ATOM     38  OD2 ASP A   8      12.730  -8.131  12.513  0.00  0.00    -0.246 OA
ATOM     39  OD1 ASP A   8      12.233  -7.423  10.501  0.00  0.00    -0.246 OA
ENDBRANCH  36  37
ENDBRANCH  16  36
ENDBRANCH  13  16
ENDBRANCH  11  12
BRANCH  11  40
ATOM     40  CB  ASP A   7      16.104  -6.626   9.946  0.00  0.00    +0.143 C 
BRANCH  40  41
ATOM     41  CG  ASP A   7      17.514  -7.125   9.664  0.00  0.00    +0.367 C 
ATOM     42  OD2 ASP A   7      17.693  -8.358   9.773  0.00  0.00    -0.246 OA
ATOM     43  OD1 ASP A   7      18.426  -6.327   9.351  0.00  0.00    -0.246 OA
ENDBRANCH  40  41
ENDBRANCH  11  40
ENDBRANCH   8  11
ENDBRANCH   5   7
ENDBRANCH   3   5
BRANCH   1  44
ATOM     44  CA  GLY A   5      20.611  -0.609  10.953  0.00  0.00    +0.176 C 
BRANCH  44  46
ATOM     45  C   THR A   4      19.751   0.524   8.977  0.00  0.00    +0.243 C 
ATOM     46  N   GLY A   5      20.053   0.545  10.272  0.00  0.00    -0.295 N 
ATOM     47  H   GLY A   5      19.884   1.416  10.814  0.00  0.00    +0.150 HD
ATOM     48  O   THR A   4      19.971  -0.448   8.256  0.00  0.00    -0.273 OA
BRANCH  45  49
ATOM     49  CA  THR A   4      19.084   1.771   8.403  0.00  0.00    +0.176 C 
BRANCH  49  52
ATOM     50  C   ASP A   3      17.486   2.288  10.174  0.00  0.00    +0.241 C 
ATOM     51  O   ASP A   3      16.909   1.214  10.044  0.00  0.00    -0.273 OA
ATOM     52  N   THR A   4      18.545   2.633   9.449  0.00  0.00    -0.295 N 
ATOM     53  H   THR A   4      19.005   3.548   9.633  0.00  0.00    +0.150 HD
BRANCH  50  54
ATOM     54  CA  ASP A   3      17.045   3.296  11.226  0.00  0.00    +0.160 C 
BRANCH  54  57
ATOM     55  C   LEU A   2      15.911   5.412  10.822  0.00  0.00    +0.241 C 
ATOM     56  O   LEU A   2      16.951   6.068  10.920  0.00  0.00    -0.273 OA
ATOM     57  N   ASP A   3      15.883   4.082  10.809  0.00  0.00    -0.297 N 
ATOM     58  H   ASP A   3      15.020   3.592  10.497  0.00  0.00    +0.150 HD
BRANCH  55  59
ATOM     59  CA  LEU A   2      14.563   6.125  10.741  0.00  0.00    +0.149 C 
BRANCH  59  62
ATOM     60  C   LEU A   1      13.873   6.135  13.068  0.00  0.00    +0.238 C 
ATOM     61  O   LEU A   1      13.526   4.952  13.006  0.00  0.00    -0.274 OA
ATOM     62  N   LEU A   2      14.347   6.798  12.017  0.00  0.00    -0.297 N 
ATOM     63  H   LEU A   2      14.567   7.811  12.106  0.00  0.00    +0.150 HD
BRANCH  60  64
ATOM     64  CA  LEU A   1      13.769   6.894  14.386  0.00  0.00    +0.145 C 
BRANCH  64  65
ATOM     65  N   LEU A   1      12.409   6.794  14.879  0.00  0.00    -0.238 NA
ATOM     66  H   LEU A   1      12.179   5.989  15.496  0.00  0.00    +0.142 HD
ENDBRANCH  64  65
BRANCH  64  67
ATOM     67  CB  LEU A   1      14.671   6.228  15.435  0.00  0.00    +0.026 C 
BRANCH  67  68
ATOM     68  CG  LEU A   1      16.144   6.516  15.703  0.00  0.00    +0.002 C 
ATOM     69  CD2 LEU A   1      16.756   5.230  16.256  0.00  0.00    +0.000 C 
ATOM     70  CD1 LEU A   1      16.887   7.033  14.500  0.00  0.00    +0.000 C 
ENDBRANCH  67  68
ENDBRANCH  64  67
ENDBRANCH  60  64
ENDBRANCH  59  62
BRANCH  59  71
ATOM     71  CB  LEU A   2      14.555   7.122   9.587  0.00  0.00    +0.029 C 
BRANCH  71  72
ATOM     72  CG  LEU A   2      13.299   7.995   9.485  0.00  0.00    +0.002 C 
ATOM     73  CD2 LEU A   2      12.039   7.132   9.435  0.00  0.00    +0.000 C 
ATOM     74  CD1 LEU A   2      13.397   8.902   8.268  0.00  0.00    +0.000 C 
ENDBRANCH  71  72
ENDBRANCH  59  71
ENDBRANCH  55  59
ENDBRANCH  54  57
BRANCH  54  75
ATOM     75  CB  ASP A   3      16.749   2.554  12.529  0.00  0.00    +0.143 C 
BRANCH  75  76
ATOM     76  CG  ASP A   3      17.969   1.818  13.060  0.00  0.00    +0.367 C 
ATOM     77  OD2 ASP A   3      17.835   1.149  14.111  0.00  0.00    -0.246 OA
ATOM     78  OD1 ASP A   3      19.063   1.938  12.451  0.00  0.00    -0.246 OA
ENDBRANCH  75  76
ENDBRANCH  54  75
ENDBRANCH  50  54
ENDBRANCH  49  52
BRANCH  49  79
ATOM     79  CB  THR A   4      20.082   2.525   7.526  0.00  0.00    +0.137 C 
ATOM     80  CG2 THR A   4      19.387   3.711   6.867  0.00  0.00    +0.034 C 
BRANCH  79  81
ATOM     81  OG1 THR A   4      21.177   2.993   8.328  0.00  0.00    -0.382 OA
ATOM     82  HG1 THR A   4      21.630   2.220   8.750  0.00  0.00    +0.210 HD
ENDBRANCH  79  81
ENDBRANCH  49  79
ENDBRANCH  45  49
ENDBRANCH  44  46
ENDBRANCH   1  44
TORSDOF 35
REMARK  Name = ../refined-set-2016/3ekw/3ekw_pocket.pdb
REMARK  228 active torsions:
REMARK  status: ('A' for Active; 'I' for Inactive)
REMARK    1  A    between atoms: _1  and  _3
REMARK    2  A    between atoms: _3  and  _4
REMARK    3  A    between atoms: _3  and  _6
REMARK    4  A    between atoms: _6  and  _7
REMARK    5  A    between atoms: _7  and  _8
REMARK    6  A    between atoms: _8  and  _9
REMARK    7  A    between atoms: _18  and  _20
REMARK    8  A    between atoms: _20  and  _21
REMARK    9  A    between atoms: _20  and  _23
REMARK   10  A    between atoms: _23  and  _24
REMARK   11  A    between atoms: _27  and  _29
REMARK   12  A    between atoms: _29  and  _30
REMARK   13  A    between atoms: _29  and  _32
REMARK   14  A    between atoms: _32  and  _33
REMARK   15  A    between atoms: _36  and  _38
REMARK   16  A    between atoms: _38  and  _39
REMARK   17  A    between atoms: _38  and  _41
REMARK   18  A    between atoms: _41  and  _42
REMARK   19  A    between atoms: _45  and  _47
REMARK   20  A    between atoms: _47  and  _48
REMARK   21  A    between atoms: _47  and  _50
REMARK   22  A    between atoms: _50  and  _51
REMARK   23  A    between atoms: _54  and  _56
REMARK   24  A    between atoms: _56  and  _57
REMARK   25  A    between atoms: _59  and  _61
REMARK   26  A    between atoms: _61  and  _62
REMARK   27  A    between atoms: _65  and  _67
REMARK   28  A    between atoms: _67  and  _68
REMARK   29  A    between atoms: _67  and  _70
REMARK   30  A    between atoms: _70  and  _71
REMARK   31  A    between atoms: _74  and  _76
REMARK   32  A    between atoms: _76  and  _77
REMARK   33  A    between atoms: _76  and  _79
REMARK   34  A    between atoms: _79  and  _80
REMARK   35  A    between atoms: _83  and  _85
REMARK   36  A    between atoms: _85  and  _86
REMARK   37  A    between atoms: _85  and  _88
REMARK   38  A    between atoms: _88  and  _89
REMARK   39  A    between atoms: _92  and  _94
REMARK   40  A    between atoms: _94  and  _95
REMARK   41  A    between atoms: _94  and  _97
REMARK   42  A    between atoms: _100  and  _102
REMARK   43  A    between atoms: _102  and  _103
REMARK   44  A    between atoms: _102  and  _105
REMARK   45  A    between atoms: _105  and  _106
REMARK   46  A    between atoms: _106  and  _107
REMARK   47  A    between atoms: _107  and  _108
REMARK   48  A    between atoms: _108  and  _109
REMARK   49  A    between atoms: _113  and  _115
REMARK   50  A    between atoms: _115  and  _116
REMARK   51  A    between atoms: _115  and  _118
REMARK   52  A    between atoms: _118  and  _119
REMARK   53  A    between atoms: _119  and  _120
REMARK   54  A    between atoms: _122  and  _124
REMARK   55  A    between atoms: _124  and  _125
REMARK   56  A    between atoms: _124  and  _127
REMARK   57  A    between atoms: _127  and  _128
REMARK   58  A    between atoms: _131  and  _133
REMARK   59  A    between atoms: _133  and  _134
REMARK   60  A    between atoms: _133  and  _136
REMARK   61  A    between atoms: _139  and  _141
REMARK   62  A    between atoms: _141  and  _142
REMARK   63  A    between atoms: _144  and  _146
REMARK   64  A    between atoms: _146  and  _147
REMARK   65  A    between atoms: _146  and  _149
REMARK   66  A    between atoms: _149  and  _150
REMARK   67  A    between atoms: _153  and  _155
REMARK   68  A    between atoms: _155  and  _156
REMARK   69  A    between atoms: _158  and  _160
REMARK   70  A    between atoms: _160  and  _161
REMARK   71  A    between atoms: _163  and  _165
REMARK   72  A    between atoms: _165  and  _166
REMARK   73  A    between atoms: _165  and  _168
REMARK   74  A    between atoms: _171  and  _173
REMARK   75  A    between atoms: _173  and  _174
REMARK   76  A    between atoms: _173  and  _176
REMARK   77  A    between atoms: _179  and  _181
REMARK   78  A    between atoms: _181  and  _182
REMARK   79  A    between atoms: _181  and  _184
REMARK   80  A    between atoms: _184  and  _185
REMARK   81  A    between atoms: _188  and  _190
REMARK   82  A    between atoms: _190  and  _191
REMARK   83  A    between atoms: _190  and  _193
REMARK   84  A    between atoms: _193  and  _194
REMARK   85  A    between atoms: _198  and  _199
REMARK   86  A    between atoms: _204  and  _206
REMARK   87  A    between atoms: _206  and  _207
REMARK   88  A    between atoms: _210  and  _212
REMARK   89  A    between atoms: _212  and  _213
REMARK   90  A    between atoms: _212  and  _215
REMARK   91  A    between atoms: _215  and  _216
REMARK   92  A    between atoms: _221  and  _223
REMARK   93  A    between atoms: _223  and  _224
REMARK   94  A    between atoms: _223  and  _226
REMARK   95  A    between atoms: _226  and  _227
REMARK   96  A    between atoms: _230  and  _232
REMARK   97  A    between atoms: _232  and  _233
REMARK   98  A    between atoms: _232  and  _235
REMARK   99  A    between atoms: _235  and  _236
REMARK  100  A    between atoms: _239  and  _241
REMARK  101  A    between atoms: _241  and  _242
REMARK  102  A    between atoms: _244  and  _246
REMARK  103  A    between atoms: _246  and  _247
REMARK  104  A    between atoms: _246  and  _249
REMARK  105  A    between atoms: _249  and  _250
REMARK  106  A    between atoms: _250  and  _251
REMARK  107  A    between atoms: _251  and  _252
REMARK  108  A    between atoms: _261  and  _263
REMARK  109  A    between atoms: _263  and  _264
REMARK  110  A    between atoms: _263  and  _266
REMARK  111  A    between atoms: _266  and  _267
REMARK  112  A    between atoms: _267  and  _268
REMARK  113  A    between atoms: _268  and  _269
REMARK  114  A    between atoms: _278  and  _280
REMARK  115  A    between atoms: _280  and  _281
REMARK  116  A    between atoms: _280  and  _283
REMARK  117  A    between atoms: _283  and  _284
REMARK  118  A    between atoms: _287  and  _289
REMARK  119  A    between atoms: _289  and  _290
REMARK  120  A    between atoms: _289  and  _292
REMARK  121  A    between atoms: _292  and  _293
REMARK  122  A    between atoms: _296  and  _298
REMARK  123  A    between atoms: _298  and  _299
REMARK  124  A    between atoms: _298  and  _301
REMARK  125  A    between atoms: _301  and  _302
REMARK  126  A    between atoms: _305  and  _307
REMARK  127  A    between atoms: _307  and  _308
REMARK  128  A    between atoms: _307  and  _310
REMARK  129  A    between atoms: _310  and  _311
REMARK  130  A    between atoms: _314  and  _316
REMARK  131  A    between atoms: _316  and  _317
REMARK  132  A    between atoms: _316  and  _319
REMARK  133  A    between atoms: _319  and  _320
REMARK  134  A    between atoms: _323  and  _325
REMARK  135  A    between atoms: _325  and  _326
REMARK  136  A    between atoms: _328  and  _330
REMARK  137  A    between atoms: _330  and  _331
REMARK  138  A    between atoms: _334  and  _336
REMARK  139  A    between atoms: _336  and  _337
REMARK  140  A    between atoms: _336  and  _339
REMARK  141  A    between atoms: _339  and  _340
REMARK  142  A    between atoms: _343  and  _345
REMARK  143  A    between atoms: _345  and  _346
REMARK  144  A    between atoms: _345  and  _348
REMARK  145  A    between atoms: _348  and  _349
REMARK  146  A    between atoms: _352  and  _354
REMARK  147  A    between atoms: _354  and  _355
REMARK  148  A    between atoms: _354  and  _357
REMARK  149  A    between atoms: _357  and  _358
REMARK  150  A    between atoms: _361  and  _363
REMARK  151  A    between atoms: _363  and  _364
REMARK  152  A    between atoms: _363  and  _366
REMARK  153  A    between atoms: _369  and  _371
REMARK  154  A    between atoms: _371  and  _372
REMARK  155  A    between atoms: _371  and  _374
REMARK  156  A    between atoms: _374  and  _375
REMARK  157  A    between atoms: _375  and  _376
REMARK  158  A    between atoms: _379  and  _381
REMARK  159  A    between atoms: _381  and  _382
REMARK  160  A    between atoms: _381  and  _384
REMARK  161  A    between atoms: _384  and  _385
REMARK  162  A    between atoms: _385  and  _386
REMARK  163  A    between atoms: _386  and  _387
REMARK  164  A    between atoms: _387  and  _388
REMARK  165  A    between atoms: _392  and  _394
REMARK  166  A    between atoms: _394  and  _395
REMARK  167  A    between atoms: _394  and  _397
REMARK  168  A    between atoms: _397  and  _398
REMARK  169  A    between atoms: _398  and  _399
REMARK  170  A    between atoms: _401  and  _403
REMARK  171  A    between atoms: _403  and  _404
REMARK  172  A    between atoms: _403  and  _406
REMARK  173  A    between atoms: _406  and  _407
REMARK  174  A    between atoms: _410  and  _412
REMARK  175  A    between atoms: _412  and  _413
REMARK  176  A    between atoms: _412  and  _415
REMARK  177  A    between atoms: _418  and  _420
REMARK  178  A    between atoms: _420  and  _421
REMARK  179  A    between atoms: _423  and  _425
REMARK  180  A    between atoms: _425  and  _426
REMARK  181  A    between atoms: _425  and  _428
REMARK  182  A    between atoms: _428  and  _429
REMARK  183  A    between atoms: _432  and  _434
REMARK  184  A    between atoms: _434  and  _435
REMARK  185  A    between atoms: _437  and  _439
REMARK  186  A    between atoms: _439  and  _440
REMARK  187  A    between atoms: _442  and  _444
REMARK  188  A    between atoms: _444  and  _445
REMARK  189  A    between atoms: _444  and  _447
REMARK  190  A    between atoms: _447  and  _448
REMARK  191  A    between atoms: _454  and  _456
REMARK  192  A    between atoms: _456  and  _457
REMARK  193  A    between atoms: _456  and  _459
REMARK  194  A    between atoms: _462  and  _464
REMARK  195  A    between atoms: _464  and  _465
REMARK  196  A    between atoms: _464  and  _467
REMARK  197  A    between atoms: _470  and  _472
REMARK  198  A    between atoms: _472  and  _473
REMARK  199  A    between atoms: _472  and  _475
REMARK  200  A    between atoms: _475  and  _476
REMARK  201  A    between atoms: _480  and  _481
REMARK  202  A    between atoms: _486  and  _488
REMARK  203  A    between atoms: _488  and  _489
REMARK  204  A    between atoms: _488  and  _491
REMARK  205  A    between atoms: _491  and  _492
REMARK  206  A    between atoms: _496  and  _497
REMARK  207  A    between atoms: _502  and  _504
REMARK  208  A    between atoms: _504  and  _505
REMARK  209  A    between atoms: _508  and  _510
REMARK  210  A    between atoms: _510  and  _511
REMARK  211  A    between atoms: _510  and  _513
REMARK  212  A    between atoms: _513  and  _514
REMARK  213  A    between atoms: _519  and  _521
REMARK  214  A    between atoms: _521  and  _522
REMARK  215  A    between atoms: _521  and  _524
REMARK  216  A    between atoms: _524  and  _525
REMARK  217  A    between atoms: _528  and  _530
REMARK  218  A    between atoms: _530  and  _531
REMARK  219  A    between atoms: _530  and  _533
REMARK  220  A    between atoms: _533  and  _534
REMARK  221  A    between atoms: _537  and  _539
REMARK  222  A    between atoms: _539  and  _540
REMARK  223  A    between atoms: _542  and  _544
REMARK  224  A    between atoms: _544  and  _545
REMARK  225  A    between atoms: _544  and  _547
REMARK  226  A    between atoms: _547  and  _548
REMARK  227  A    between atoms: _548  and  _549
REMARK  228  A    between atoms: _549  and  _550
REMARK                            x       y       z     vdW  Elec       q    Type
REMARK                         _______ _______ _______ _____ _____    ______ ____
ROOT
ATOM      1  CA  GLU A   1       6.811   0.973  21.804  0.00  0.00    +0.134 C 
ENDROOT
BRANCH   1   2
ATOM      2  N   GLU A   1       7.138   1.012  20.391  0.00  0.00    -0.239 NA
ATOM      3  H   GLU A   1       7.369   1.925  19.950  0.00  0.00    +0.142 HD
ENDBRANCH   1   2
BRANCH   1   4
ATOM      4  C   GLU A   1       5.419   0.370  21.953  0.00  0.00    +0.224 C 
ATOM      5  O   GLU A   1       4.613   0.396  21.017  0.00  0.00    -0.287 OA
ENDBRANCH   1   4
BRANCH   1   6
ATOM      6  CB  GLU A   1       6.856   2.382  22.397  0.00  0.00    +0.037 C 
BRANCH   6   7
ATOM      7  CG  GLU A   1       8.265   2.975  22.436  0.00  0.00    +0.116 C 
BRANCH   7   8
ATOM      8  CD  GLU A   1       8.282   4.484  22.591  0.00  0.00    +0.365 C 
ATOM      9  OE2 GLU A   1       7.221   5.082  22.867  0.00  0.00    -0.246 OA
ATOM     10  OE1 GLU A   1       9.374   5.073  22.444  0.00  0.00    -0.246 OA
ENDBRANCH   7   8
ENDBRANCH   6   7
ENDBRANCH   1   6
TORSDOF 5
REMARK  Name = ../refined-set-2016/3ekw/3ekw_pocket.pdb
REMARK  228 active torsions:
REMARK  status: ('A' for Active; 'I' for Inactive)
REMARK    1  A    between atoms: _1  and  _3
REMARK    2  A    between atoms: _3  and  _4
REMARK    3  A    between atoms: _3  and  _6
REMARK    4  A    between atoms: _6  and  _7
REMARK    5  A    between atoms: _7  and  _8
REMARK    6  A    between atoms: _8  and  _9
REMARK    7  A    between atoms: _18  and  _20
REMARK    8  A    between atoms: _20  and  _21
REMARK    9  A    between atoms: _20  and  _23
REMARK   10  A    between atoms: _23  and  _24
REMARK   11  A    between atoms: _27  and  _29
REMARK   12  A    between atoms: _29  and  _30
REMARK   13  A    between atoms: _29  and  _32
REMARK   14  A    between atoms: _32  and  _33
REMARK   15  A    between atoms: _36  and  _38
REMARK   16  A    between atoms: _38  and  _39
REMARK   17  A    between atoms: _38  and  _41
REMARK   18  A    between atoms: _41  and  _42
REMARK   19  A    between atoms: _45  and  _47
REMARK   20  A    between atoms: _47  and  _48
REMARK   21  A    between atoms: _47  and  _50
REMARK   22  A    between atoms: _50  and  _51
REMARK   23  A    between atoms: _54  and  _56
REMARK   24  A    between atoms: _56  and  _57
REMARK   25  A    between atoms: _59  and  _61
REMARK   26  A    between atoms: _61  and  _62
REMARK   27  A    between atoms: _65  and  _67
REMARK   28  A    between atoms: _67  and  _68
REMARK   29  A    between atoms: _67  and  _70
REMARK   30  A    between atoms: _70  and  _71
REMARK   31  A    between atoms: _74  and  _76
REMARK   32  A    between atoms: _76  and  _77
REMARK   33  A    between atoms: _76  and  _79
REMARK   34  A    between atoms: _79  and  _80
REMARK   35  A    between atoms: _83  and  _85
REMARK   36  A    between atoms: _85  and  _86
REMARK   37  A    between atoms: _85  and  _88
REMARK   38  A    between atoms: _88  and  _89
REMARK   39  A    between atoms: _92  and  _94
REMARK   40  A    between atoms: _94  and  _95
REMARK   41  A    between atoms: _94  and  _97
REMARK   42  A    between atoms: _100  and  _102
REMARK   43  A    between atoms: _102  and  _103
REMARK   44  A    between atoms: _102  and  _105
REMARK   45  A    between atoms: _105  and  _106
REMARK   46  A    between atoms: _106  and  _107
REMARK   47  A    between atoms: _107  and  _108
REMARK   48  A    between atoms: _108  and  _109
REMARK   49  A    between atoms: _113  and  _115
REMARK   50  A    between atoms: _115  and  _116
REMARK   51  A    between atoms: _115  and  _118
REMARK   52  A    between atoms: _118  and  _119
REMARK   53  A    between atoms: _119  and  _120
REMARK   54  A    between atoms: _122  and  _124
REMARK   55  A    between atoms: _124  and  _125
REMARK   56  A    between atoms: _124  and  _127
REMARK   57  A    between atoms: _127  and  _128
REMARK   58  A    between atoms: _131  and  _133
REMARK   59  A    between atoms: _133  and  _134
REMARK   60  A    between atoms: _133  and  _136
REMARK   61  A    between atoms: _139  and  _141
REMARK   62  A    between atoms: _141  and  _142
REMARK   63  A    between atoms: _144  and  _146
REMARK   64  A    between atoms: _146  and  _147
REMARK   65  A    between atoms: _146  and  _149
REMARK   66  A    between atoms: _149  and  _150
REMARK   67  A    between atoms: _153  and  _155
REMARK   68  A    between atoms: _155  and  _156
REMARK   69  A    between atoms: _158  and  _160
REMARK   70  A    between atoms: _160  and  _161
REMARK   71  A    between atoms: _163  and  _165
REMARK   72  A    between atoms: _165  and  _166
REMARK   73  A    between atoms: _165  and  _168
REMARK   74  A    between atoms: _171  and  _173
REMARK   75  A    between atoms: _173  and  _174
REMARK   76  A    between atoms: _173  and  _176
REMARK   77  A    between atoms: _179  and  _181
REMARK   78  A    between atoms: _181  and  _182
REMARK   79  A    between atoms: _181  and  _184
REMARK   80  A    between atoms: _184  and  _185
REMARK   81  A    between atoms: _188  and  _190
REMARK   82  A    between atoms: _190  and  _191
REMARK   83  A    between atoms: _190  and  _193
REMARK   84  A    between atoms: _193  and  _194
REMARK   85  A    between atoms: _198  and  _199
REMARK   86  A    between atoms: _204  and  _206
REMARK   87  A    between atoms: _206  and  _207
REMARK   88  A    between atoms: _210  and  _212
REMARK   89  A    between atoms: _212  and  _213
REMARK   90  A    between atoms: _212  and  _215
REMARK   91  A    between atoms: _215  and  _216
REMARK   92  A    between atoms: _221  and  _223
REMARK   93  A    between atoms: _223  and  _224
REMARK   94  A    between atoms: _223  and  _226
REMARK   95  A    between atoms: _226  and  _227
REMARK   96  A    between atoms: _230  and  _232
REMARK   97  A    between atoms: _232  and  _233
REMARK   98  A    between atoms: _232  and  _235
REMARK   99  A    between atoms: _235  and  _236
REMARK  100  A    between atoms: _239  and  _241
REMARK  101  A    between atoms: _241  and  _242
REMARK  102  A    between atoms: _244  and  _246
REMARK  103  A    between atoms: _246  and  _247
REMARK  104  A    between atoms: _246  and  _249
REMARK  105  A    between atoms: _249  and  _250
REMARK  106  A    between atoms: _250  and  _251
REMARK  107  A    between atoms: _251  and  _252
REMARK  108  A    between atoms: _261  and  _263
REMARK  109  A    between atoms: _263  and  _264
REMARK  110  A    between atoms: _263  and  _266
REMARK  111  A    between atoms: _266  and  _267
REMARK  112  A    between atoms: _267  and  _268
REMARK  113  A    between atoms: _268  and  _269
REMARK  114  A    between atoms: _278  and  _280
REMARK  115  A    between atoms: _280  and  _281
REMARK  116  A    between atoms: _280  and  _283
REMARK  117  A    between atoms: _283  and  _284
REMARK  118  A    between atoms: _287  and  _289
REMARK  119  A    between atoms: _289  and  _290
REMARK  120  A    between atoms: _289  and  _292
REMARK  121  A    between atoms: _292  and  _293
REMARK  122  A    between atoms: _296  and  _298
REMARK  123  A    between atoms: _298  and  _299
REMARK  124  A    between atoms: _298  and  _301
REMARK  125  A    between atoms: _301  and  _302
REMARK  126  A    between atoms: _305  and  _307
REMARK  127  A    between atoms: _307  and  _308
REMARK  128  A    between atoms: _307  and  _310
REMARK  129  A    between atoms: _310  and  _311
REMARK  130  A    between atoms: _314  and  _316
REMARK  131  A    between atoms: _316  and  _317
REMARK  132  A    between atoms: _316  and  _319
REMARK  133  A    between atoms: _319  and  _320
REMARK  134  A    between atoms: _323  and  _325
REMARK  135  A    between atoms: _325  and  _326
REMARK  136  A    between atoms: _328  and  _330
REMARK  137  A    between atoms: _330  and  _331
REMARK  138  A    between atoms: _334  and  _336
REMARK  139  A    between atoms: _336  and  _337
REMARK  140  A    between atoms: _336  and  _339
REMARK  141  A    between atoms: _339  and  _340
REMARK  142  A    between atoms: _343  and  _345
REMARK  143  A    between atoms: _345  and  _346
REMARK  144  A    between atoms: _345  and  _348
REMARK  145  A    between atoms: _348  and  _349
REMARK  146  A    between atoms: _352  and  _354
REMARK  147  A    between atoms: _354  and  _355
REMARK  148  A    between atoms: _354  and  _357
REMARK  149  A    between atoms: _357  and  _358
REMARK  150  A    between atoms: _361  and  _363
REMARK  151  A    between atoms: _363  and  _364
REMARK  152  A    between atoms: _363  and  _366
REMARK  153  A    between atoms: _369  and  _371
REMARK  154  A    between atoms: _371  and  _372
REMARK  155  A    between atoms: _371  and  _374
REMARK  156  A    between atoms: _374  and  _375
REMARK  157  A    between atoms: _375  and  _376
REMARK  158  A    between atoms: _379  and  _381
REMARK  159  A    between atoms: _381  and  _382
REMARK  160  A    between atoms: _381  and  _384
REMARK  161  A    between atoms: _384  and  _385
REMARK  162  A    between atoms: _385  and  _386
REMARK  163  A    between atoms: _386  and  _387
REMARK  164  A    between atoms: _387  and  _388
REMARK  165  A    between atoms: _392  and  _394
REMARK  166  A    between atoms: _394  and  _395
REMARK  167  A    between atoms: _394  and  _397
REMARK  168  A    between atoms: _397  and  _398
REMARK  169  A    between atoms: _398  and  _399
REMARK  170  A    between atoms: _401  and  _403
REMARK  171  A    between atoms: _403  and  _404
REMARK  172  A    between atoms: _403  and  _406
REMARK  173  A    between atoms: _406  and  _407
REMARK  174  A    between atoms: _410  and  _412
REMARK  175  A    between atoms: _412  and  _413
REMARK  176  A    between atoms: _412  and  _415
REMARK  177  A    between atoms: _418  and  _420
REMARK  178  A    between atoms: _420  and  _421
REMARK  179  A    between atoms: _423  and  _425
REMARK  180  A    between atoms: _425  and  _426
REMARK  181  A    between atoms: _425  and  _428
REMARK  182  A    between atoms: _428  and  _429
REMARK  183  A    between atoms: _432  and  _434
REMARK  184  A    between atoms: _434  and  _435
REMARK  185  A    between atoms: _437  and  _439
REMARK  186  A    between atoms: _439  and  _440
REMARK  187  A    between atoms: _442  and  _444
REMARK  188  A    between atoms: _444  and  _445
REMARK  189  A    between atoms: _444  and  _447
REMARK  190  A    between atoms: _447  and  _448
REMARK  191  A    between atoms: _454  and  _456
REMARK  192  A    between atoms: _456  and  _457
REMARK  193  A    between atoms: _456  and  _459
REMARK  194  A    between atoms: _462  and  _464
REMARK  195  A    between atoms: _464  and  _465
REMARK  196  A    between atoms: _464  and  _467
REMARK  197  A    between atoms: _470  and  _472
REMARK  198  A    between atoms: _472  and  _473
REMARK  199  A    between atoms: _472  and  _475
REMARK  200  A    between atoms: _475  and  _476
REMARK  201  A    between atoms: _480  and  _481
REMARK  202  A    between atoms: _486  and  _488
REMARK  203  A    between atoms: _488  and  _489
REMARK  204  A    between atoms: _488  and  _491
REMARK  205  A    between atoms: _491  and  _492
REMARK  206  A    between atoms: _496  and  _497
REMARK  207  A    between atoms: _502  and  _504
REMARK  208  A    between atoms: _504  and  _505
REMARK  209  A    between atoms: _508  and  _510
REMARK  210  A    between atoms: _510  and  _511
REMARK  211  A    between atoms: _510  and  _513
REMARK  212  A    between atoms: _513  and  _514
REMARK  213  A    between atoms: _519  and  _521
REMARK  214  A    between atoms: _521  and  _522
REMARK  215  A    between atoms: _521  and  _524
REMARK  216  A    between atoms: _524  and  _525
REMARK  217  A    between atoms: _528  and  _530
REMARK  218  A    between atoms: _530  and  _531
REMARK  219  A    between atoms: _530  and  _533
REMARK  220  A    between atoms: _533  and  _534
REMARK  221  A    between atoms: _537  and  _539
REMARK  222  A    between atoms: _539  and  _540
REMARK  223  A    between atoms: _542  and  _544
REMARK  224  A    between atoms: _544  and  _545
REMARK  225  A    between atoms: _544  and  _547
REMARK  226  A    between atoms: _547  and  _548
REMARK  227  A    between atoms: _548  and  _549
REMARK  228  A    between atoms: _549  and  _550
REMARK                            x       y       z     vdW  Elec       q    Type
REMARK                         _______ _______ _______ _____ _____    ______ ____
ROOT
ATOM      1  CA  GLY A   5      19.700  -5.600  19.570  0.00  0.00    +0.176 C 
ENDROOT
BRANCH   1   3
ATOM      2  C   VAL A   4      18.802  -7.567  18.419  0.00  0.00    +0.241 C 
ATOM      3  N   GLY A   5      19.114  -6.939  19.550  0.00  0.00    -0.295 N 
ATOM      4  H   GLY A   5      18.934  -7.419  20.455  0.00  0.00    +0.150 HD
ATOM      5  O   VAL A   4      18.748  -7.011  17.326  0.00  0.00    -0.273 OA
BRANCH   2   6
ATOM      6  CA  VAL A   4      18.459  -9.048  18.543  0.00  0.00    +0.149 C 
BRANCH   6   9
ATOM      7  C   ILE A   3      16.130  -9.692  18.500  0.00  0.00    +0.241 C 
ATOM      8  O   ILE A   3      16.060  -9.673  19.725  0.00  0.00    -0.273 OA
ATOM      9  N   VAL A   4      17.227  -9.350  17.831  0.00  0.00    -0.297 N 
ATOM     10  H   VAL A   4      17.204  -9.298  16.793  0.00  0.00    +0.150 HD
BRANCH   7  11
ATOM     11  CA  ILE A   3      14.936 -10.099  17.661  0.00  0.00    +0.149 C 
BRANCH  11  13
ATOM     12  C   MET A   2      13.678 -12.170  18.005  0.00  0.00    +0.241 C 
ATOM     13  N   ILE A   3      14.046 -10.968  18.431  0.00  0.00    -0.297 N 
ATOM     14  H   ILE A   3      13.688 -10.631  19.347  0.00  0.00    +0.150 HD
ATOM     15  O   MET A   2      13.997 -12.629  16.903  0.00  0.00    -0.273 OA
BRANCH  12  16
ATOM     16  CA  MET A   2      12.831 -12.989  18.965  0.00  0.00    +0.149 C 
BRANCH  16  19
ATOM     17  C   LYS A   1      10.458 -12.775  18.451  0.00  0.00    +0.238 C 
ATOM     18  O   LYS A   1      10.271 -11.936  19.335  0.00  0.00    -0.274 OA
ATOM     19  N   MET A   2      11.624 -13.381  18.248  0.00  0.00    -0.297 N 
ATOM     20  H   MET A   2      11.676 -14.157  17.558  0.00  0.00    +0.150 HD
BRANCH  17  21
ATOM     21  CA  LYS A   1       9.321 -13.175  17.528  0.00  0.00    +0.145 C 
BRANCH  21  22
ATOM     22  N   LYS A   1       8.098 -13.124  18.320  0.00  0.00    -0.238 NA
ATOM     23  H   LYS A   1       7.982 -12.354  19.010  0.00  0.00    +0.142 HD
ENDBRANCH  21  22
BRANCH  21  24
ATOM     24  CB  LYS A   1       9.238 -12.207  16.344  0.00  0.00    +0.026 C 
BRANCH  24  25
ATOM     25  CG  LYS A   1      10.496 -12.147  15.481  0.00  0.00    -0.000 C 
BRANCH  25  26
ATOM     26  CD  LYS A   1      10.317 -11.228  14.282  0.00  0.00    -0.024 C 
BRANCH  26  27
ATOM     27  CE  LYS A   1      11.505 -11.285  13.336  0.00  0.00    -0.086 C 
BRANCH  27  28
ATOM     28  NZ  LYS A   1      11.493 -12.502  12.486  0.00  0.00    +0.380 N 
ATOM     29  HZ1 LYS A   1      11.523 -13.347  13.092  0.00  0.00    -0.089 HD
ATOM     30  HZ2 LYS A   1      10.625 -12.515  11.914  0.00  0.00    -0.089 HD
ATOM     31  HZ3 LYS A   1      12.323 -12.494  11.859  0.00  0.00    -0.089 HD
ENDBRANCH  27  28
ENDBRANCH  26  27
ENDBRANCH  25  26
ENDBRANCH  24  25
ENDBRANCH  21  24
ENDBRANCH  17  21
ENDBRANCH  16  19
BRANCH  16  32
ATOM     32  CB  MET A   2      13.608 -14.224  19.412  0.00  0.00    +0.041 C 
BRANCH  32  33
ATOM     33  CG  MET A   2      12.861 -15.100  20.391  0.00  0.00    +0.060 C 
BRANCH  33  34
ATOM     34  SD  MET A   2      12.782 -14.341  22.019  0.00  0.00    -0.139 S 
ATOM     35  CE  MET A   2      14.436 -14.677  22.618  0.00  0.00    +0.069 C 
ENDBRANCH  33  34
ENDBRANCH  32  33
ENDBRANCH  16  32
ENDBRANCH  12  16
ENDBRANCH  11  13
BRANCH  11  36
ATOM     36  CB  ILE A   3      14.221  -8.844  17.123  0.00  0.00    +0.027 C 
ATOM     37  CG2 ILE A   3      13.102  -9.254  16.176  0.00  0.00    +0.002 C 
BRANCH  36  38
ATOM     38  CG1 ILE A   3      13.675  -7.969  18.251  0.00  0.00    +0.002 C 
ATOM     39  CD1 ILE A   3      12.992  -6.715  17.776  0.00  0.00    +0.000 C 
ENDBRANCH  36  38
ENDBRANCH  11  36
ENDBRANCH   7  11
ENDBRANCH   6   9
BRANCH   6  40
ATOM     40  CB  VAL A   4      19.628  -9.923  18.044  0.00  0.00    +0.027 C 
ATOM     41  CG2 VAL A   4      20.928  -9.532  18.724  0.00  0.00    +0.002 C 
ATOM     42  CG1 VAL A   4      19.745  -9.896  16.538  0.00  0.00    +0.002 C 
ENDBRANCH   6  40
ENDBRANCH   2   6
ENDBRANCH   1   3
BRANCH   1  43
ATOM     43  C   GLY A   5      21.084  -5.654  20.194  0.00  0.00    +0.243 C 
ATOM     44  N   ILE A   6      21.645  -4.485  20.468  0.00  0.00    -0.297 N 
ATOM     45  H   ILE A   6      21.114  -3.607  20.298  0.00  0.00    +0.150 HD
ATOM     46  O   GLY A   5      21.627  -6.734  20.449  0.00  0.00    -0.273 OA
BRANCH  44  47
ATOM     47  CA  ILE A   6      22.999  -4.416  21.006  0.00  0.00    +0.149 C 
BRANCH  47  48
ATOM     48  C   ILE A   6      23.202  -5.286  22.250  0.00  0.00    +0.241 C 
ATOM     49  N   GLY A   7      22.193  -5.367  23.114  0.00  0.00    -0.295 N 
ATOM     50  H   GLY A   7      21.300  -4.881  22.895  0.00  0.00    +0.150 HD
ATOM     51  O   ILE A   6      24.275  -5.876  22.408  0.00  0.00    -0.273 OA
BRANCH  49  52
ATOM     52  CA  GLY A   7      22.305  -6.122  24.364  0.00  0.00    +0.176 C 
BRANCH  52  53
ATOM     53  C   GLY A   7      21.857  -7.570  24.295  0.00  0.00    +0.243 C 
ATOM     54  O   GLY A   7      21.866  -8.262  25.320  0.00  0.00    -0.273 OA
ATOM     55  N   GLY A   8      21.483  -8.030  23.100  0.00  0.00    -0.295 N 
ATOM     56  H   GLY A   8      21.504  -7.385  22.285  0.00  0.00    +0.150 HD
BRANCH  55  57
ATOM     57  CA  GLY A   8      21.046  -9.406  22.898  0.00  0.00    +0.176 C 
BRANCH  57  58
ATOM     58  C   GLY A   8      19.599  -9.496  22.454  0.00  0.00    +0.243 C 
ATOM     59  N   PHE A   9      19.053 -10.703  22.573  0.00  0.00    -0.297 N 
ATOM     60  H   PHE A   9      19.607 -11.465  23.012  0.00  0.00    +0.150 HD
ATOM     61  O   GLY A   8      19.007  -8.507  22.007  0.00  0.00    -0.273 OA
BRANCH  59  62
ATOM     62  CA  PHE A   9      17.699 -10.992  22.106  0.00  0.00    +0.153 C 
BRANCH  62  63
ATOM     63  C   PHE A   9      16.616 -10.572  23.097  0.00  0.00    +0.241 C 
ATOM     64  O   PHE A   9      16.779 -10.680  24.319  0.00  0.00    -0.273 OA
ATOM     65  N   VAL A  10      15.515 -10.084  22.534  0.00  0.00    -0.298 N 
ATOM     66  H   VAL A  10      15.514  -9.915  21.508  0.00  0.00    +0.150 HD
BRANCH  65  67
ATOM     67  CA  VAL A  10      14.312  -9.776  23.291  0.00  0.00    +0.137 C 
BRANCH  67  68
ATOM     68  CB  VAL A  10      14.114  -8.249  23.494  0.00  0.00    +0.026 C 
ATOM     69  CG2 VAL A  10      15.333  -7.627  24.163  0.00  0.00    +0.002 C 
ATOM     70  CG1 VAL A  10      13.811  -7.546  22.177  0.00  0.00    +0.002 C 
ENDBRANCH  67  68
BRANCH  67  71
ATOM     71  C   VAL A  10      13.116 -10.356  22.545  0.00  0.00    +0.227 C 
ATOM     72  O   VAL A  10      13.150 -10.510  21.319  0.00  0.00    -0.286 OA
ENDBRANCH  67  71
ENDBRANCH  65  67
ENDBRANCH  62  63
BRANCH  62  73
ATOM     73  CB  PHE A   9      17.537 -12.474  21.773  0.00  0.00    +0.055 C 
BRANCH  73  74
ATOM     74  CG  PHE A   9      18.045 -12.854  20.416  0.00  0.00    -0.020 A 
ATOM     75  CD2 PHE A   9      19.357 -13.273  20.243  0.00  0.00    -0.004 A 
ATOM     76  CE2 PHE A   9      19.830 -13.645  18.998  0.00  0.00    -0.000 A 
ATOM     77  CZ  PHE A   9      18.992 -13.601  17.904  0.00  0.00    -0.000 A 
ATOM     78  CE1 PHE A   9      17.690 -13.173  18.062  0.00  0.00    -0.000 A 
ATOM     79  CD1 PHE A   9      17.223 -12.806  19.309  0.00  0.00    -0.004 A 
ENDBRANCH  73  74
ENDBRANCH  62  73
ENDBRANCH  59  62
ENDBRANCH  57  58
ENDBRANCH  55  57
ENDBRANCH  52  53
ENDBRANCH  49  52
ENDBRANCH  47  48
BRANCH  47  80
ATOM     80  CB  ILE A   6      23.438  -2.967  21.279  0.00  0.00    +0.027 C 
ATOM     81  CG2 ILE A   6      22.744  -2.391  22.514  0.00  0.00    +0.002 C 
BRANCH  80  82
ATOM     82  CG1 ILE A   6      24.958  -2.878  21.384  0.00  0.00    +0.002 C 
ATOM     83  CD1 ILE A   6      25.660  -2.958  20.039  0.00  0.00    +0.000 C 
ENDBRANCH  80  82
ENDBRANCH  47  80
ENDBRANCH  44  47
ENDBRANCH   1  43
TORSDOF 36
REMARK  Name = ../refined-set-2016/3ekw/3ekw_pocket.pdb
REMARK  228 active torsions:
REMARK  status: ('A' for Active; 'I' for Inactive)
REMARK    1  A    between atoms: _1  and  _3
REMARK    2  A    between atoms: _3  and  _4
REMARK    3  A    between atoms: _3  and  _6
REMARK    4  A    between atoms: _6  and  _7
REMARK    5  A    between atoms: _7  and  _8
REMARK    6  A    between atoms: _8  and  _9
REMARK    7  A    between atoms: _18  and  _20
REMARK    8  A    between atoms: _20  and  _21
REMARK    9  A    between atoms: _20  and  _23
REMARK   10  A    between atoms: _23  and  _24
REMARK   11  A    between atoms: _27  and  _29
REMARK   12  A    between atoms: _29  and  _30
REMARK   13  A    between atoms: _29  and  _32
REMARK   14  A    between atoms: _32  and  _33
REMARK   15  A    between atoms: _36  and  _38
REMARK   16  A    between atoms: _38  and  _39
REMARK   17  A    between atoms: _38  and  _41
REMARK   18  A    between atoms: _41  and  _42
REMARK   19  A    between atoms: _45  and  _47
REMARK   20  A    between atoms: _47  and  _48
REMARK   21  A    between atoms: _47  and  _50
REMARK   22  A    between atoms: _50  and  _51
REMARK   23  A    between atoms: _54  and  _56
REMARK   24  A    between atoms: _56  and  _57
REMARK   25  A    between atoms: _59  and  _61
REMARK   26  A    between atoms: _61  and  _62
REMARK   27  A    between atoms: _65  and  _67
REMARK   28  A    between atoms: _67  and  _68
REMARK   29  A    between atoms: _67  and  _70
REMARK   30  A    between atoms: _70  and  _71
REMARK   31  A    between atoms: _74  and  _76
REMARK   32  A    between atoms: _76  and  _77
REMARK   33  A    between atoms: _76  and  _79
REMARK   34  A    between atoms: _79  and  _80
REMARK   35  A    between atoms: _83  and  _85
REMARK   36  A    between atoms: _85  and  _86
REMARK   37  A    between atoms: _85  and  _88
REMARK   38  A    between atoms: _88  and  _89
REMARK   39  A    between atoms: _92  and  _94
REMARK   40  A    between atoms: _94  and  _95
REMARK   41  A    between atoms: _94  and  _97
REMARK   42  A    between atoms: _100  and  _102
REMARK   43  A    between atoms: _102  and  _103
REMARK   44  A    between atoms: _102  and  _105
REMARK   45  A    between atoms: _105  and  _106
REMARK   46  A    between atoms: _106  and  _107
REMARK   47  A    between atoms: _107  and  _108
REMARK   48  A    between atoms: _108  and  _109
REMARK   49  A    between atoms: _113  and  _115
REMARK   50  A    between atoms: _115  and  _116
REMARK   51  A    between atoms: _115  and  _118
REMARK   52  A    between atoms: _118  and  _119
REMARK   53  A    between atoms: _119  and  _120
REMARK   54  A    between atoms: _122  and  _124
REMARK   55  A    between atoms: _124  and  _125
REMARK   56  A    between atoms: _124  and  _127
REMARK   57  A    between atoms: _127  and  _128
REMARK   58  A    between atoms: _131  and  _133
REMARK   59  A    between atoms: _133  and  _134
REMARK   60  A    between atoms: _133  and  _136
REMARK   61  A    between atoms: _139  and  _141
REMARK   62  A    between atoms: _141  and  _142
REMARK   63  A    between atoms: _144  and  _146
REMARK   64  A    between atoms: _146  and  _147
REMARK   65  A    between atoms: _146  and  _149
REMARK   66  A    between atoms: _149  and  _150
REMARK   67  A    between atoms: _153  and  _155
REMARK   68  A    between atoms: _155  and  _156
REMARK   69  A    between atoms: _158  and  _160
REMARK   70  A    between atoms: _160  and  _161
REMARK   71  A    between atoms: _163  and  _165
REMARK   72  A    between atoms: _165  and  _166
REMARK   73  A    between atoms: _165  and  _168
REMARK   74  A    between atoms: _171  and  _173
REMARK   75  A    between atoms: _173  and  _174
REMARK   76  A    between atoms: _173  and  _176
REMARK   77  A    between atoms: _179  and  _181
REMARK   78  A    between atoms: _181  and  _182
REMARK   79  A    between atoms: _181  and  _184
REMARK   80  A    between atoms: _184  and  _185
REMARK   81  A    between atoms: _188  and  _190
REMARK   82  A    between atoms: _190  and  _191
REMARK   83  A    between atoms: _190  and  _193
REMARK   84  A    between atoms: _193  and  _194
REMARK   85  A    between atoms: _198  and  _199
REMARK   86  A    between atoms: _204  and  _206
REMARK   87  A    between atoms: _206  and  _207
REMARK   88  A    between atoms: _210  and  _212
REMARK   89  A    between atoms: _212  and  _213
REMARK   90  A    between atoms: _212  and  _215
REMARK   91  A    between atoms: _215  and  _216
REMARK   92  A    between atoms: _221  and  _223
REMARK   93  A    between atoms: _223  and  _224
REMARK   94  A    between atoms: _223  and  _226
REMARK   95  A    between atoms: _226  and  _227
REMARK   96  A    between atoms: _230  and  _232
REMARK   97  A    between atoms: _232  and  _233
REMARK   98  A    between atoms: _232  and  _235
REMARK   99  A    between atoms: _235  and  _236
REMARK  100  A    between atoms: _239  and  _241
REMARK  101  A    between atoms: _241  and  _242
REMARK  102  A    between atoms: _244  and  _246
REMARK  103  A    between atoms: _246  and  _247
REMARK  104  A    between atoms: _246  and  _249
REMARK  105  A    between atoms: _249  and  _250
REMARK  106  A    between atoms: _250  and  _251
REMARK  107  A    between atoms: _251  and  _252
REMARK  108  A    between atoms: _261  and  _263
REMARK  109  A    between atoms: _263  and  _264
REMARK  110  A    between atoms: _263  and  _266
REMARK  111  A    between atoms: _266  and  _267
REMARK  112  A    between atoms: _267  and  _268
REMARK  113  A    between atoms: _268  and  _269
REMARK  114  A    between atoms: _278  and  _280
REMARK  115  A    between atoms: _280  and  _281
REMARK  116  A    between atoms: _280  and  _283
REMARK  117  A    between atoms: _283  and  _284
REMARK  118  A    between atoms: _287  and  _289
REMARK  119  A    between atoms: _289  and  _290
REMARK  120  A    between atoms: _289  and  _292
REMARK  121  A    between atoms: _292  and  _293
REMARK  122  A    between atoms: _296  and  _298
REMARK  123  A    between atoms: _298  and  _299
REMARK  124  A    between atoms: _298  and  _301
REMARK  125  A    between atoms: _301  and  _302
REMARK  126  A    between atoms: _305  and  _307
REMARK  127  A    between atoms: _307  and  _308
REMARK  128  A    between atoms: _307  and  _310
REMARK  129  A    between atoms: _310  and  _311
REMARK  130  A    between atoms: _314  and  _316
REMARK  131  A    between atoms: _316  and  _317
REMARK  132  A    between atoms: _316  and  _319
REMARK  133  A    between atoms: _319  and  _320
REMARK  134  A    between atoms: _323  and  _325
REMARK  135  A    between atoms: _325  and  _326
REMARK  136  A    between atoms: _328  and  _330
REMARK  137  A    between atoms: _330  and  _331
REMARK  138  A    between atoms: _334  and  _336
REMARK  139  A    between atoms: _336  and  _337
REMARK  140  A    between atoms: _336  and  _339
REMARK  141  A    between atoms: _339  and  _340
REMARK  142  A    between atoms: _343  and  _345
REMARK  143  A    between atoms: _345  and  _346
REMARK  144  A    between atoms: _345  and  _348
REMARK  145  A    between atoms: _348  and  _349
REMARK  146  A    between atoms: _352  and  _354
REMARK  147  A    between atoms: _354  and  _355
REMARK  148  A    between atoms: _354  and  _357
REMARK  149  A    between atoms: _357  and  _358
REMARK  150  A    between atoms: _361  and  _363
REMARK  151  A    between atoms: _363  and  _364
REMARK  152  A    between atoms: _363  and  _366
REMARK  153  A    between atoms: _369  and  _371
REMARK  154  A    between atoms: _371  and  _372
REMARK  155  A    between atoms: _371  and  _374
REMARK  156  A    between atoms: _374  and  _375
REMARK  157  A    between atoms: _375  and  _376
REMARK  158  A    between atoms: _379  and  _381
REMARK  159  A    between atoms: _381  and  _382
REMARK  160  A    between atoms: _381  and  _384
REMARK  161  A    between atoms: _384  and  _385
REMARK  162  A    between atoms: _385  and  _386
REMARK  163  A    between atoms: _386  and  _387
REMARK  164  A    between atoms: _387  and  _388
REMARK  165  A    between atoms: _392  and  _394
REMARK  166  A    between atoms: _394  and  _395
REMARK  167  A    between atoms: _394  and  _397
REMARK  168  A    between atoms: _397  and  _398
REMARK  169  A    between atoms: _398  and  _399
REMARK  170  A    between atoms: _401  and  _403
REMARK  171  A    between atoms: _403  and  _404
REMARK  172  A    between atoms: _403  and  _406
REMARK  173  A    between atoms: _406  and  _407
REMARK  174  A    between atoms: _410  and  _412
REMARK  175  A    between atoms: _412  and  _413
REMARK  176  A    between atoms: _412  and  _415
REMARK  177  A    between atoms: _418  and  _420
REMARK  178  A    between atoms: _420  and  _421
REMARK  179  A    between atoms: _423  and  _425
REMARK  180  A    between atoms: _425  and  _426
REMARK  181  A    between atoms: _425  and  _428
REMARK  182  A    between atoms: _428  and  _429
REMARK  183  A    between atoms: _432  and  _434
REMARK  184  A    between atoms: _434  and  _435
REMARK  185  A    between atoms: _437  and  _439
REMARK  186  A    between atoms: _439  and  _440
REMARK  187  A    between atoms: _442  and  _444
REMARK  188  A    between atoms: _444  and  _445
REMARK  189  A    between atoms: _444  and  _447
REMARK  190  A    between atoms: _447  and  _448
REMARK  191  A    between atoms: _454  and  _456
REMARK  192  A    between atoms: _456  and  _457
REMARK  193  A    between atoms: _456  and  _459
REMARK  194  A    between atoms: _462  and  _464
REMARK  195  A    between atoms: _464  and  _465
REMARK  196  A    between atoms: _464  and  _467
REMARK  197  A    between atoms: _470  and  _472
REMARK  198  A    between atoms: _472  and  _473
REMARK  199  A    between atoms: _472  and  _475
REMARK  200  A    between atoms: _475  and  _476
REMARK  201  A    between atoms: _480  and  _481
REMARK  202  A    between atoms: _486  and  _488
REMARK  203  A    between atoms: _488  and  _489
REMARK  204  A    between atoms: _488  and  _491
REMARK  205  A    between atoms: _491  and  _492
REMARK  206  A    between atoms: _496  and  _497
REMARK  207  A    between atoms: _502  and  _504
REMARK  208  A    between atoms: _504  and  _505
REMARK  209  A    between atoms: _508  and  _510
REMARK  210  A    between atoms: _510  and  _511
REMARK  211  A    between atoms: _510  and  _513
REMARK  212  A    between atoms: _513  and  _514
REMARK  213  A    between atoms: _519  and  _521
REMARK  214  A    between atoms: _521  and  _522
REMARK  215  A    between atoms: _521  and  _524
REMARK  216  A    between atoms: _524  and  _525
REMARK  217  A    between atoms: _528  and  _530
REMARK  218  A    between atoms: _530  and  _531
REMARK  219  A    between atoms: _530  and  _533
REMARK  220  A    between atoms: _533  and  _534
REMARK  221  A    between atoms: _537  and  _539
REMARK  222  A    between atoms: _539  and  _540
REMARK  223  A    between atoms: _542  and  _544
REMARK  224  A    between atoms: _544  and  _545
REMARK  225  A    between atoms: _544  and  _547
REMARK  226  A    between atoms: _547  and  _548
REMARK  227  A    between atoms: _548  and  _549
REMARK  228  A    between atoms: _549  and  _550
REMARK                            x       y       z     vdW  Elec       q    Type
REMARK                         _______ _______ _______ _____ _____    ______ ____
ROOT
ATOM      1  CA  VAL A   1       8.326  -8.996  20.824  0.00  0.00    +0.133 C 
ENDROOT
BRANCH   1   2
ATOM      2  CB  VAL A   1       8.996  -8.026  19.827  0.00  0.00    +0.023 C 
ATOM      3  CG2 VAL A   1      10.178  -7.346  20.485  0.00  0.00    +0.002 C 
ATOM      4  CG1 VAL A   1       9.445  -8.751  18.569  0.00  0.00    +0.002 C 
ENDBRANCH   1   2
BRANCH   1   5
ATOM      5  N   VAL A   1       9.268 -10.017  21.255  0.00  0.00    -0.239 NA
ATOM      6  H   VAL A   1       9.487 -10.795  20.600  0.00  0.00    +0.142 HD
ENDBRANCH   1   5
BRANCH   1   7
ATOM      7  C   VAL A   1       7.112  -9.667  20.188  0.00  0.00    +0.224 C 
ATOM      8  O   VAL A   1       7.112 -10.876  19.952  0.00  0.00    -0.287 OA
ENDBRANCH   1   7
TORSDOF 3
REMARK  Name = ../refined-set-2016/3ekw/3ekw_pocket.pdb
REMARK  228 active torsions:
REMARK  status: ('A' for Active; 'I' for Inactive)
REMARK    1  A    between atoms: _1  and  _3
REMARK    2  A    between atoms: _3  and  _4
REMARK    3  A    between atoms: _3  and  _6
REMARK    4  A    between atoms: _6  and  _7
REMARK    5  A    between atoms: _7  and  _8
REMARK    6  A    between atoms: _8  and  _9
REMARK    7  A    between atoms: _18  and  _20
REMARK    8  A    between atoms: _20  and  _21
REMARK    9  A    between atoms: _20  and  _23
REMARK   10  A    between atoms: _23  and  _24
REMARK   11  A    between atoms: _27  and  _29
REMARK   12  A    between atoms: _29  and  _30
REMARK   13  A    between atoms: _29  and  _32
REMARK   14  A    between atoms: _32  and  _33
REMARK   15  A    between atoms: _36  and  _38
REMARK   16  A    between atoms: _38  and  _39
REMARK   17  A    between atoms: _38  and  _41
REMARK   18  A    between atoms: _41  and  _42
REMARK   19  A    between atoms: _45  and  _47
REMARK   20  A    between atoms: _47  and  _48
REMARK   21  A    between atoms: _47  and  _50
REMARK   22  A    between atoms: _50  and  _51
REMARK   23  A    between atoms: _54  and  _56
REMARK   24  A    between atoms: _56  and  _57
REMARK   25  A    between atoms: _59  and  _61
REMARK   26  A    between atoms: _61  and  _62
REMARK   27  A    between atoms: _65  and  _67
REMARK   28  A    between atoms: _67  and  _68
REMARK   29  A    between atoms: _67  and  _70
REMARK   30  A    between atoms: _70  and  _71
REMARK   31  A    between atoms: _74  and  _76
REMARK   32  A    between atoms: _76  and  _77
REMARK   33  A    between atoms: _76  and  _79
REMARK   34  A    between atoms: _79  and  _80
REMARK   35  A    between atoms: _83  and  _85
REMARK   36  A    between atoms: _85  and  _86
REMARK   37  A    between atoms: _85  and  _88
REMARK   38  A    between atoms: _88  and  _89
REMARK   39  A    between atoms: _92  and  _94
REMARK   40  A    between atoms: _94  and  _95
REMARK   41  A    between atoms: _94  and  _97
REMARK   42  A    between atoms: _100  and  _102
REMARK   43  A    between atoms: _102  and  _103
REMARK   44  A    between atoms: _102  and  _105
REMARK   45  A    between atoms: _105  and  _106
REMARK   46  A    between atoms: _106  and  _107
REMARK   47  A    between atoms: _107  and  _108
REMARK   48  A    between atoms: _108  and  _109
REMARK   49  A    between atoms: _113  and  _115
REMARK   50  A    between atoms: _115  and  _116
REMARK   51  A    between atoms: _115  and  _118
REMARK   52  A    between atoms: _118  and  _119
REMARK   53  A    between atoms: _119  and  _120
REMARK   54  A    between atoms: _122  and  _124
REMARK   55  A    between atoms: _124  and  _125
REMARK   56  A    between atoms: _124  and  _127
REMARK   57  A    between atoms: _127  and  _128
REMARK   58  A    between atoms: _131  and  _133
REMARK   59  A    between atoms: _133  and  _134
REMARK   60  A    between atoms: _133  and  _136
REMARK   61  A    between atoms: _139  and  _141
REMARK   62  A    between atoms: _141  and  _142
REMARK   63  A    between atoms: _144  and  _146
REMARK   64  A    between atoms: _146  and  _147
REMARK   65  A    between atoms: _146  and  _149
REMARK   66  A    between atoms: _149  and  _150
REMARK   67  A    between atoms: _153  and  _155
REMARK   68  A    between atoms: _155  and  _156
REMARK   69  A    between atoms: _158  and  _160
REMARK   70  A    between atoms: _160  and  _161
REMARK   71  A    between atoms: _163  and  _165
REMARK   72  A    between atoms: _165  and  _166
REMARK   73  A    between atoms: _165  and  _168
REMARK   74  A    between atoms: _171  and  _173
REMARK   75  A    between atoms: _173  and  _174
REMARK   76  A    between atoms: _173  and  _176
REMARK   77  A    between atoms: _179  and  _181
REMARK   78  A    between atoms: _181  and  _182
REMARK   79  A    between atoms: _181  and  _184
REMARK   80  A    between atoms: _184  and  _185
REMARK   81  A    between atoms: _188  and  _190
REMARK   82  A    between atoms: _190  and  _191
REMARK   83  A    between atoms: _190  and  _193
REMARK   84  A    between atoms: _193  and  _194
REMARK   85  A    between atoms: _198  and  _199
REMARK   86  A    between atoms: _204  and  _206
REMARK   87  A    between atoms: _206  and  _207
REMARK   88  A    between atoms: _210  and  _212
REMARK   89  A    between atoms: _212  and  _213
REMARK   90  A    between atoms: _212  and  _215
REMARK   91  A    between atoms: _215  and  _216
REMARK   92  A    between atoms: _221  and  _223
REMARK   93  A    between atoms: _223  and  _224
REMARK   94  A    between atoms: _223  and  _226
REMARK   95  A    between atoms: _226  and  _227
REMARK   96  A    between atoms: _230  and  _232
REMARK   97  A    between atoms: _232  and  _233
REMARK   98  A    between atoms: _232  and  _235
REMARK   99  A    between atoms: _235  and  _236
REMARK  100  A    between atoms: _239  and  _241
REMARK  101  A    between atoms: _241  and  _242
REMARK  102  A    between atoms: _244  and  _246
REMARK  103  A    between atoms: _246  and  _247
REMARK  104  A    between atoms: _246  and  _249
REMARK  105  A    between atoms: _249  and  _250
REMARK  106  A    between atoms: _250  and  _251
REMARK  107  A    between atoms: _251  and  _252
REMARK  108  A    between atoms: _261  and  _263
REMARK  109  A    between atoms: _263  and  _264
REMARK  110  A    between atoms: _263  and  _266
REMARK  111  A    between atoms: _266  and  _267
REMARK  112  A    between atoms: _267  and  _268
REMARK  113  A    between atoms: _268  and  _269
REMARK  114  A    between atoms: _278  and  _280
REMARK  115  A    between atoms: _280  and  _281
REMARK  116  A    between atoms: _280  and  _283
REMARK  117  A    between atoms: _283  and  _284
REMARK  118  A    between atoms: _287  and  _289
REMARK  119  A    between atoms: _289  and  _290
REMARK  120  A    between atoms: _289  and  _292
REMARK  121  A    between atoms: _292  and  _293
REMARK  122  A    between atoms: _296  and  _298
REMARK  123  A    between atoms: _298  and  _299
REMARK  124  A    between atoms: _298  and  _301
REMARK  125  A    between atoms: _301  and  _302
REMARK  126  A    between atoms: _305  and  _307
REMARK  127  A    between atoms: _307  and  _308
REMARK  128  A    between atoms: _307  and  _310
REMARK  129  A    between atoms: _310  and  _311
REMARK  130  A    between atoms: _314  and  _316
REMARK  131  A    between atoms: _316  and  _317
REMARK  132  A    between atoms: _316  and  _319
REMARK  133  A    between atoms: _319  and  _320
REMARK  134  A    between atoms: _323  and  _325
REMARK  135  A    between atoms: _325  and  _326
REMARK  136  A    between atoms: _328  and  _330
REMARK  137  A    between atoms: _330  and  _331
REMARK  138  A    between atoms: _334  and  _336
REMARK  139  A    between atoms: _336  and  _337
REMARK  140  A    between atoms: _336  and  _339
REMARK  141  A    between atoms: _339  and  _340
REMARK  142  A    between atoms: _343  and  _345
REMARK  143  A    between atoms: _345  and  _346
REMARK  144  A    between atoms: _345  and  _348
REMARK  145  A    between atoms: _348  and  _349
REMARK  146  A    between atoms: _352  and  _354
REMARK  147  A    between atoms: _354  and  _355
REMARK  148  A    between atoms: _354  and  _357
REMARK  149  A    between atoms: _357  and  _358
REMARK  150  A    between atoms: _361  and  _363
REMARK  151  A    between atoms: _363  and  _364
REMARK  152  A    between atoms: _363  and  _366
REMARK  153  A    between atoms: _369  and  _371
REMARK  154  A    between atoms: _371  and  _372
REMARK  155  A    between atoms: _371  and  _374
REMARK  156  A    between atoms: _374  and  _375
REMARK  157  A    between atoms: _375  and  _376
REMARK  158  A    between atoms: _379  and  _381
REMARK  159  A    between atoms: _381  and  _382
REMARK  160  A    between atoms: _381  and  _384
REMARK  161  A    between atoms: _384  and  _385
REMARK  162  A    between atoms: _385  and  _386
REMARK  163  A    between atoms: _386  and  _387
REMARK  164  A    between atoms: _387  and  _388
REMARK  165  A    between atoms: _392  and  _394
REMARK  166  A    between atoms: _394  and  _395
REMARK  167  A    between atoms: _394  and  _397
REMARK  168  A    between atoms: _397  and  _398
REMARK  169  A    between atoms: _398  and  _399
REMARK  170  A    between atoms: _401  and  _403
REMARK  171  A    between atoms: _403  and  _404
REMARK  172  A    between atoms: _403  and  _406
REMARK  173  A    between atoms: _406  and  _407
REMARK  174  A    between atoms: _410  and  _412
REMARK  175  A    between atoms: _412  and  _413
REMARK  176  A    between atoms: _412  and  _415
REMARK  177  A    between atoms: _418  and  _420
REMARK  178  A    between atoms: _420  and  _421
REMARK  179  A    between atoms: _423  and  _425
REMARK  180  A    between atoms: _425  and  _426
REMARK  181  A    between atoms: _425  and  _428
REMARK  182  A    between atoms: _428  and  _429
REMARK  183  A    between atoms: _432  and  _434
REMARK  184  A    between atoms: _434  and  _435
REMARK  185  A    between atoms: _437  and  _439
REMARK  186  A    between atoms: _439  and  _440
REMARK  187  A    between atoms: _442  and  _444
REMARK  188  A    between atoms: _444  and  _445
REMARK  189  A    between atoms: _444  and  _447
REMARK  190  A    between atoms: _447  and  _448
REMARK  191  A    between atoms: _454  and  _456
REMARK  192  A    between atoms: _456  and  _457
REMARK  193  A    between atoms: _456  and  _459
REMARK  194  A    between atoms: _462  and  _464
REMARK  195  A    between atoms: _464  and  _465
REMARK  196  A    between atoms: _464  and  _467
REMARK  197  A    between atoms: _470  and  _472
REMARK  198  A    between atoms: _472  and  _473
REMARK  199  A    between atoms: _472  and  _475
REMARK  200  A    between atoms: _475  and  _476
REMARK  201  A    between atoms: _480  and  _481
REMARK  202  A    between atoms: _486  and  _488
REMARK  203  A    between atoms: _488  and  _489
REMARK  204  A    between atoms: _488  and  _491
REMARK  205  A    between atoms: _491  and  _492
REMARK  206  A    between atoms: _496  and  _497
REMARK  207  A    between atoms: _502  and  _504
REMARK  208  A    between atoms: _504  and  _505
REMARK  209  A    between atoms: _508  and  _510
REMARK  210  A    between atoms: _510  and  _511
REMARK  211  A    between atoms: _510  and  _513
REMARK  212  A    between atoms: _513  and  _514
REMARK  213  A    between atoms: _519  and  _521
REMARK  214  A    between atoms: _521  and  _522
REMARK  215  A    between atoms: _521  and  _524
REMARK  216  A    between atoms: _524  and  _525
REMARK  217  A    between atoms: _528  and  _530
REMARK  218  A    between atoms: _530  and  _531
REMARK  219  A    between atoms: _530  and  _533
REMARK  220  A    between atoms: _533  and  _534
REMARK  221  A    between atoms: _537  and  _539
REMARK  222  A    between atoms: _539  and  _540
REMARK  223  A    between atoms: _542  and  _544
REMARK  224  A    between atoms: _544  and  _545
REMARK  225  A    between atoms: _544  and  _547
REMARK  226  A    between atoms: _547  and  _548
REMARK  227  A    between atoms: _548  and  _549
REMARK  228  A    between atoms: _549  and  _550
REMARK                            x       y       z     vdW  Elec       q    Type
REMARK                         _______ _______ _______ _____ _____    ______ ____
ROOT
ATOM      1  CA  LEU A   1       6.891  -5.509  15.901  0.00  0.00    +0.133 C 
ENDROOT
BRANCH   1   2
ATOM      2  N   LEU A   1       6.625  -4.803  14.665  0.00  0.00    -0.239 NA
ATOM      3  H   LEU A   1       7.338  -4.142  14.297  0.00  0.00    +0.142 HD
ENDBRANCH   1   2
BRANCH   1   4
ATOM      4  C   LEU A   1       6.616  -4.564  17.052  0.00  0.00    +0.224 C 
ATOM      5  O   LEU A   1       6.898  -3.369  16.951  0.00  0.00    -0.287 OA
ENDBRANCH   1   4
BRANCH   1   6
ATOM      6  CB  LEU A   1       8.346  -5.965  15.935  0.00  0.00    +0.025 C 
BRANCH   6   7
ATOM      7  CG  LEU A   1       8.800  -6.715  14.678  0.00  0.00    +0.002 C 
ATOM      8  CD2 LEU A   1      10.224  -7.193  14.886  0.00  0.00    +0.000 C 
ATOM      9  CD1 LEU A   1       7.872  -7.890  14.364  0.00  0.00    +0.000 C 
ENDBRANCH   6   7
ENDBRANCH   1   6
TORSDOF 4
REMARK  Name = ../refined-set-2016/3ekw/3ekw_pocket.pdb
REMARK  228 active torsions:
REMARK  status: ('A' for Active; 'I' for Inactive)
REMARK    1  A    between atoms: _1  and  _3
REMARK    2  A    between atoms: _3  and  _4
REMARK    3  A    between atoms: _3  and  _6
REMARK    4  A    between atoms: _6  and  _7
REMARK    5  A    between atoms: _7  and  _8
REMARK    6  A    between atoms: _8  and  _9
REMARK    7  A    between atoms: _18  and  _20
REMARK    8  A    between atoms: _20  and  _21
REMARK    9  A    between atoms: _20  and  _23
REMARK   10  A    between atoms: _23  and  _24
REMARK   11  A    between atoms: _27  and  _29
REMARK   12  A    between atoms: _29  and  _30
REMARK   13  A    between atoms: _29  and  _32
REMARK   14  A    between atoms: _32  and  _33
REMARK   15  A    between atoms: _36  and  _38
REMARK   16  A    between atoms: _38  and  _39
REMARK   17  A    between atoms: _38  and  _41
REMARK   18  A    between atoms: _41  and  _42
REMARK   19  A    between atoms: _45  and  _47
REMARK   20  A    between atoms: _47  and  _48
REMARK   21  A    between atoms: _47  and  _50
REMARK   22  A    between atoms: _50  and  _51
REMARK   23  A    between atoms: _54  and  _56
REMARK   24  A    between atoms: _56  and  _57
REMARK   25  A    between atoms: _59  and  _61
REMARK   26  A    between atoms: _61  and  _62
REMARK   27  A    between atoms: _65  and  _67
REMARK   28  A    between atoms: _67  and  _68
REMARK   29  A    between atoms: _67  and  _70
REMARK   30  A    between atoms: _70  and  _71
REMARK   31  A    between atoms: _74  and  _76
REMARK   32  A    between atoms: _76  and  _77
REMARK   33  A    between atoms: _76  and  _79
REMARK   34  A    between atoms: _79  and  _80
REMARK   35  A    between atoms: _83  and  _85
REMARK   36  A    between atoms: _85  and  _86
REMARK   37  A    between atoms: _85  and  _88
REMARK   38  A    between atoms: _88  and  _89
REMARK   39  A    between atoms: _92  and  _94
REMARK   40  A    between atoms: _94  and  _95
REMARK   41  A    between atoms: _94  and  _97
REMARK   42  A    between atoms: _100  and  _102
REMARK   43  A    between atoms: _102  and  _103
REMARK   44  A    between atoms: _102  and  _105
REMARK   45  A    between atoms: _105  and  _106
REMARK   46  A    between atoms: _106  and  _107
REMARK   47  A    between atoms: _107  and  _108
REMARK   48  A    between atoms: _108  and  _109
REMARK   49  A    between atoms: _113  and  _115
REMARK   50  A    between atoms: _115  and  _116
REMARK   51  A    between atoms: _115  and  _118
REMARK   52  A    between atoms: _118  and  _119
REMARK   53  A    between atoms: _119  and  _120
REMARK   54  A    between atoms: _122  and  _124
REMARK   55  A    between atoms: _124  and  _125
REMARK   56  A    between atoms: _124  and  _127
REMARK   57  A    between atoms: _127  and  _128
REMARK   58  A    between atoms: _131  and  _133
REMARK   59  A    between atoms: _133  and  _134
REMARK   60  A    between atoms: _133  and  _136
REMARK   61  A    between atoms: _139  and  _141
REMARK   62  A    between atoms: _141  and  _142
REMARK   63  A    between atoms: _144  and  _146
REMARK   64  A    between atoms: _146  and  _147
REMARK   65  A    between atoms: _146  and  _149
REMARK   66  A    between atoms: _149  and  _150
REMARK   67  A    between atoms: _153  and  _155
REMARK   68  A    between atoms: _155  and  _156
REMARK   69  A    between atoms: _158  and  _160
REMARK   70  A    between atoms: _160  and  _161
REMARK   71  A    between atoms: _163  and  _165
REMARK   72  A    between atoms: _165  and  _166
REMARK   73  A    between atoms: _165  and  _168
REMARK   74  A    between atoms: _171  and  _173
REMARK   75  A    between atoms: _173  and  _174
REMARK   76  A    between atoms: _173  and  _176
REMARK   77  A    between atoms: _179  and  _181
REMARK   78  A    between atoms: _181  and  _182
REMARK   79  A    between atoms: _181  and  _184
REMARK   80  A    between atoms: _184  and  _185
REMARK   81  A    between atoms: _188  and  _190
REMARK   82  A    between atoms: _190  and  _191
REMARK   83  A    between atoms: _190  and  _193
REMARK   84  A    between atoms: _193  and  _194
REMARK   85  A    between atoms: _198  and  _199
REMARK   86  A    between atoms: _204  and  _206
REMARK   87  A    between atoms: _206  and  _207
REMARK   88  A    between atoms: _210  and  _212
REMARK   89  A    between atoms: _212  and  _213
REMARK   90  A    between atoms: _212  and  _215
REMARK   91  A    between atoms: _215  and  _216
REMARK   92  A    between atoms: _221  and  _223
REMARK   93  A    between atoms: _223  and  _224
REMARK   94  A    between atoms: _223  and  _226
REMARK   95  A    between atoms: _226  and  _227
REMARK   96  A    between atoms: _230  and  _232
REMARK   97  A    between atoms: _232  and  _233
REMARK   98  A    between atoms: _232  and  _235
REMARK   99  A    between atoms: _235  and  _236
REMARK  100  A    between atoms: _239  and  _241
REMARK  101  A    between atoms: _241  and  _242
REMARK  102  A    between atoms: _244  and  _246
REMARK  103  A    between atoms: _246  and  _247
REMARK  104  A    between atoms: _246  and  _249
REMARK  105  A    between atoms: _249  and  _250
REMARK  106  A    between atoms: _250  and  _251
REMARK  107  A    between atoms: _251  and  _252
REMARK  108  A    between atoms: _261  and  _263
REMARK  109  A    between atoms: _263  and  _264
REMARK  110  A    between atoms: _263  and  _266
REMARK  111  A    between atoms: _266  and  _267
REMARK  112  A    between atoms: _267  and  _268
REMARK  113  A    between atoms: _268  and  _269
REMARK  114  A    between atoms: _278  and  _280
REMARK  115  A    between atoms: _280  and  _281
REMARK  116  A    between atoms: _280  and  _283
REMARK  117  A    between atoms: _283  and  _284
REMARK  118  A    between atoms: _287  and  _289
REMARK  119  A    between atoms: _289  and  _290
REMARK  120  A    between atoms: _289  and  _292
REMARK  121  A    between atoms: _292  and  _293
REMARK  122  A    between atoms: _296  and  _298
REMARK  123  A    between atoms: _298  and  _299
REMARK  124  A    between atoms: _298  and  _301
REMARK  125  A    between atoms: _301  and  _302
REMARK  126  A    between atoms: _305  and  _307
REMARK  127  A    between atoms: _307  and  _308
REMARK  128  A    between atoms: _307  and  _310
REMARK  129  A    between atoms: _310  and  _311
REMARK  130  A    between atoms: _314  and  _316
REMARK  131  A    between atoms: _316  and  _317
REMARK  132  A    between atoms: _316  and  _319
REMARK  133  A    between atoms: _319  and  _320
REMARK  134  A    between atoms: _323  and  _325
REMARK  135  A    between atoms: _325  and  _326
REMARK  136  A    between atoms: _328  and  _330
REMARK  137  A    between atoms: _330  and  _331
REMARK  138  A    between atoms: _334  and  _336
REMARK  139  A    between atoms: _336  and  _337
REMARK  140  A    between atoms: _336  and  _339
REMARK  141  A    between atoms: _339  and  _340
REMARK  142  A    between atoms: _343  and  _345
REMARK  143  A    between atoms: _345  and  _346
REMARK  144  A    between atoms: _345  and  _348
REMARK  145  A    between atoms: _348  and  _349
REMARK  146  A    between atoms: _352  and  _354
REMARK  147  A    between atoms: _354  and  _355
REMARK  148  A    between atoms: _354  and  _357
REMARK  149  A    between atoms: _357  and  _358
REMARK  150  A    between atoms: _361  and  _363
REMARK  151  A    between atoms: _363  and  _364
REMARK  152  A    between atoms: _363  and  _366
REMARK  153  A    between atoms: _369  and  _371
REMARK  154  A    between atoms: _371  and  _372
REMARK  155  A    between atoms: _371  and  _374
REMARK  156  A    between atoms: _374  and  _375
REMARK  157  A    between atoms: _375  and  _376
REMARK  158  A    between atoms: _379  and  _381
REMARK  159  A    between atoms: _381  and  _382
REMARK  160  A    between atoms: _381  and  _384
REMARK  161  A    between atoms: _384  and  _385
REMARK  162  A    between atoms: _385  and  _386
REMARK  163  A    between atoms: _386  and  _387
REMARK  164  A    between atoms: _387  and  _388
REMARK  165  A    between atoms: _392  and  _394
REMARK  166  A    between atoms: _394  and  _395
REMARK  167  A    between atoms: _394  and  _397
REMARK  168  A    between atoms: _397  and  _398
REMARK  169  A    between atoms: _398  and  _399
REMARK  170  A    between atoms: _401  and  _403
REMARK  171  A    between atoms: _403  and  _404
REMARK  172  A    between atoms: _403  and  _406
REMARK  173  A    between atoms: _406  and  _407
REMARK  174  A    between atoms: _410  and  _412
REMARK  175  A    between atoms: _412  and  _413
REMARK  176  A    between atoms: _412  and  _415
REMARK  177  A    between atoms: _418  and  _420
REMARK  178  A    between atoms: _420  and  _421
REMARK  179  A    between atoms: _423  and  _425
REMARK  180  A    between atoms: _425  and  _426
REMARK  181  A    between atoms: _425  and  _428
REMARK  182  A    between atoms: _428  and  _429
REMARK  183  A    between atoms: _432  and  _434
REMARK  184  A    between atoms: _434  and  _435
REMARK  185  A    between atoms: _437  and  _439
REMARK  186  A    between atoms: _439  and  _440
REMARK  187  A    between atoms: _442  and  _444
REMARK  188  A    between atoms: _444  and  _445
REMARK  189  A    between atoms: _444  and  _447
REMARK  190  A    between atoms: _447  and  _448
REMARK  191  A    between atoms: _454  and  _456
REMARK  192  A    between atoms: _456  and  _457
REMARK  193  A    between atoms: _456  and  _459
REMARK  194  A    between atoms: _462  and  _464
REMARK  195  A    between atoms: _464  and  _465
REMARK  196  A    between atoms: _464  and  _467
REMARK  197  A    between atoms: _470  and  _472
REMARK  198  A    between atoms: _472  and  _473
REMARK  199  A    between atoms: _472  and  _475
REMARK  200  A    between atoms: _475  and  _476
REMARK  201  A    between atoms: _480  and  _481
REMARK  202  A    between atoms: _486  and  _488
REMARK  203  A    between atoms: _488  and  _489
REMARK  204  A    between atoms: _488  and  _491
REMARK  205  A    between atoms: _491  and  _492
REMARK  206  A    between atoms: _496  and  _497
REMARK  207  A    between atoms: _502  and  _504
REMARK  208  A    between atoms: _504  and  _505
REMARK  209  A    between atoms: _508  and  _510
REMARK  210  A    between atoms: _510  and  _511
REMARK  211  A    between atoms: _510  and  _513
REMARK  212  A    between atoms: _513  and  _514
REMARK  213  A    between atoms: _519  and  _521
REMARK  214  A    between atoms: _521  and  _522
REMARK  215  A    between atoms: _521  and  _524
REMARK  216  A    between atoms: _524  and  _525
REMARK  217  A    between atoms: _528  and  _530
REMARK  218  A    between atoms: _530  and  _531
REMARK  219  A    between atoms: _530  and  _533
REMARK  220  A    between atoms: _533  and  _534
REMARK  221  A    between atoms: _537  and  _539
REMARK  222  A    between atoms: _539  and  _540
REMARK  223  A    between atoms: _542  and  _544
REMARK  224  A    between atoms: _544  and  _545
REMARK  225  A    between atoms: _544  and  _547
REMARK  226  A    between atoms: _547  and  _548
REMARK  227  A    between atoms: _548  and  _549
REMARK  228  A    between atoms: _549  and  _550
REMARK                            x       y       z     vdW  Elec       q    Type
REMARK                         _______ _______ _______ _____ _____    ______ ____
ROOT
ATOM      1  C   ASN A   5      10.993   3.741  16.906  0.00  0.00    +0.241 C 
ATOM      2  O   ASN A   5      11.681   4.734  16.700  0.00  0.00    -0.273 OA
ATOM      3  N   ILE A   6      11.107   2.621  16.203  0.00  0.00    -0.297 N 
ATOM      4  H   ILE A   6      10.432   1.850  16.379  0.00  0.00    +0.150 HD
ENDROOT
BRANCH   3   5
ATOM      5  CA  ILE A   6      12.136   2.431  15.199  0.00  0.00    +0.149 C 
BRANCH   5   6
ATOM      6  C   ILE A   6      11.502   2.001  13.897  0.00  0.00    +0.241 C 
ATOM      7  O   ILE A   6      10.822   0.978  13.861  0.00  0.00    -0.273 OA
ATOM      8  N   ILE A   7      11.728   2.775  12.838  0.00  0.00    -0.297 N 
ATOM      9  H   ILE A   7      12.222   3.681  12.967  0.00  0.00    +0.150 HD
BRANCH   8  10
ATOM     10  CA  ILE A   7      11.300   2.382  11.505  0.00  0.00    +0.149 C 
BRANCH  10  11
ATOM     11  C   ILE A   7      12.487   1.700  10.838  0.00  0.00    +0.241 C 
ATOM     12  O   ILE A   7      13.523   2.326  10.617  0.00  0.00    -0.273 OA
ATOM     13  N   GLY A   8      12.318   0.425  10.508  0.00  0.00    -0.295 N 
ATOM     14  H   GLY A   8      11.391  -0.018  10.673  0.00  0.00    +0.150 HD
BRANCH  13  15
ATOM     15  CA  GLY A   8      13.388  -0.377   9.922  0.00  0.00    +0.176 C 
BRANCH  15  16
ATOM     16  C   GLY A   8      13.282  -0.513   8.415  0.00  0.00    +0.243 C 
ATOM     17  N   ARG A   9      14.201  -1.284   7.849  0.00  0.00    -0.298 N 
ATOM     18  H   ARG A   9      14.834  -1.848   8.451  0.00  0.00    +0.150 HD
ATOM     19  O   GLY A   8      12.384   0.040   7.768  0.00  0.00    -0.273 OA
BRANCH  17  20
ATOM     20  CA  ARG A   9      14.342  -1.357   6.395  0.00  0.00    +0.137 C 
BRANCH  20  21
ATOM     21  C   ARG A   9      13.119  -1.920   5.685  0.00  0.00    +0.227 C 
ATOM     22  O   ARG A   9      12.881  -1.604   4.517  0.00  0.00    -0.286 OA
ENDBRANCH  20  21
BRANCH  20  23
ATOM     23  CB  ARG A   9      15.578  -2.176   6.010  0.00  0.00    +0.031 C 
BRANCH  23  24
ATOM     24  CG  ARG A   9      16.893  -1.495   6.359  0.00  0.00    +0.045 C 
BRANCH  24  25
ATOM     25  CD  ARG A   9      18.080  -2.297   5.852  0.00  0.00    +0.174 C 
BRANCH  25  26
ATOM     26  NE  ARG A   9      18.116  -3.642   6.425  0.00  0.00    -0.265 N 
ATOM     27  HE  ARG A   9      18.476  -3.732   7.397  0.00  0.00    +0.259 HD
ATOM     28  CZ  ARG A   9      17.729  -4.766   5.815  0.00  0.00    +0.342 C 
ATOM     29  NH2 ARG A   9      17.823  -5.914   6.472  0.00  0.00    -0.292 N 
ATOM     30 HH21 ARG A   9      18.193  -5.928   7.444  0.00  0.00    +0.255 HD
ATOM     31 HH22 ARG A   9      17.527  -6.800   6.015  0.00  0.00    +0.255 HD
ATOM     32  NH1 ARG A   9      17.261  -4.784   4.568  0.00  0.00    -0.292 N 
ATOM     33 HH11 ARG A   9      16.972  -5.684   4.134  0.00  0.00    +0.255 HD
ATOM     34 HH12 ARG A   9      17.185  -3.898   4.028  0.00  0.00    +0.255 HD
ENDBRANCH  25  26
ENDBRANCH  24  25
ENDBRANCH  23  24
ENDBRANCH  20  23
ENDBRANCH  17  20
ENDBRANCH  15  16
ENDBRANCH  13  15
ENDBRANCH  10  11
BRANCH  10  35
ATOM     35  CB  ILE A   7      10.864   3.576  10.644  0.00  0.00    +0.027 C 
ATOM     36  CG2 ILE A   7      10.395   3.108   9.263  0.00  0.00    +0.002 C 
BRANCH  35  37
ATOM     37  CG1 ILE A   7       9.799   4.423  11.357  0.00  0.00    +0.002 C 
ATOM     38  CD1 ILE A   7       8.573   3.670  11.788  0.00  0.00    +0.000 C 
ENDBRANCH  35  37
ENDBRANCH  10  35
ENDBRANCH   8  10
ENDBRANCH   5   6
BRANCH   5  39
ATOM     39  CB  ILE A   6      13.124   1.327  15.648  0.00  0.00    +0.027 C 
ATOM     40  CG2 ILE A   6      14.051   0.920  14.511  0.00  0.00    +0.002 C 
BRANCH  39  41
ATOM     41  CG1 ILE A   6      13.903   1.793  16.879  0.00  0.00    +0.002 C 
ATOM     42  CD1 ILE A   6      14.544   0.677  17.650  0.00  0.00    +0.000 C 
ENDBRANCH  39  41
ENDBRANCH   5  39
ENDBRANCH   3   5
BRANCH   1  43
ATOM     43  CA  ASN A   5       9.948   3.740  18.008  0.00  0.00    +0.158 C 
BRANCH  43  46
ATOM     44  C   ALA A   4      11.474   3.616  19.879  0.00  0.00    +0.241 C 
ATOM     45  O   ALA A   4      11.717   2.436  19.641  0.00  0.00    -0.273 OA
ATOM     46  N   ASN A   5      10.548   4.302  19.215  0.00  0.00    -0.297 N 
ATOM     47  H   ASN A   5      10.251   5.239  19.555  0.00  0.00    +0.150 HD
BRANCH  44  48
ATOM     48  CA  ALA A   4      12.242   4.348  20.974  0.00  0.00    +0.149 C 
ATOM     49  CB  ALA A   4      13.411   5.109  20.363  0.00  0.00    +0.031 C 
BRANCH  48  52
ATOM     50  C   PRO A   3      13.137   3.832  23.184  0.00  0.00    +0.241 C 
ATOM     51  O   PRO A   3      13.196   5.026  23.480  0.00  0.00    -0.273 OA
ATOM     52  N   ALA A   4      12.723   3.413  21.990  0.00  0.00    -0.297 N 
ATOM     53  H   ALA A   4      12.742   2.396  21.775  0.00  0.00    +0.150 HD
BRANCH  50  57
ATOM     54  C   THR A   2      12.267   0.808  23.649  0.00  0.00    +0.246 C 
ATOM     55  O   THR A   2      11.229   1.345  24.009  0.00  0.00    -0.273 OA
ATOM     56  N   PRO A   3      13.465   1.403  23.760  0.00  0.00    -0.272 N 
ATOM     57  CA  PRO A   3      13.555   2.785  24.220  0.00  0.00    +0.152 C 
ATOM     58  CB  PRO A   3      15.037   2.930  24.565  0.00  0.00    +0.031 C 
ATOM     59  CG  PRO A   3      15.709   2.007  23.618  0.00  0.00    +0.024 C 
ATOM     60  CD  PRO A   3      14.795   0.829  23.487  0.00  0.00    +0.094 C 
BRANCH  54  61
ATOM     61  CA  THR A   2      12.224  -0.585  23.040  0.00  0.00    +0.176 C 
BRANCH  61  63
ATOM     62  C   PRO A   1      11.479  -2.637  24.070  0.00  0.00    +0.239 C 
ATOM     63  N   THR A   2      11.231  -1.378  23.738  0.00  0.00    -0.295 N 
ATOM     64  H   THR A   2      10.313  -0.954  23.981  0.00  0.00    +0.150 HD
ATOM     65  O   PRO A   1      12.492  -3.242  23.709  0.00  0.00    -0.274 OA
BRANCH  62  67
ATOM     66  N   PRO A   1       9.528  -4.153  24.109  0.00  0.00    -0.210 NA
ATOM     67  CA  PRO A   1      10.406  -3.308  24.913  0.00  0.00    +0.149 C 
ATOM     68  CB  PRO A   1      11.020  -4.280  25.932  0.00  0.00    +0.028 C 
ATOM     69  CG  PRO A   1      10.220  -5.532  25.838  0.00  0.00    +0.021 C 
ATOM     70  CD  PRO A   1       9.660  -5.578  24.461  0.00  0.00    +0.089 C 
ENDBRANCH  62  67
ENDBRANCH  61  63
BRANCH  61  71
ATOM     71  CB  THR A   2      11.916  -0.497  21.532  0.00  0.00    +0.137 C 
ATOM     72  CG2 THR A   2      10.496   0.001  21.260  0.00  0.00    +0.034 C 
BRANCH  71  73
ATOM     73  OG1 THR A   2      12.875   0.372  20.917  0.00  0.00    -0.382 OA
ATOM     74  HG1 THR A   2      12.686   0.436  19.947  0.00  0.00    +0.210 HD
ENDBRANCH  71  73
ENDBRANCH  61  71
ENDBRANCH  54  61
ENDBRANCH  50  57
ENDBRANCH  48  52
ENDBRANCH  44  48
ENDBRANCH  43  46
BRANCH  43  75
ATOM     75  CB  ASN A   5       8.740   4.548  17.542  0.00  0.00    +0.114 C 
BRANCH  75  76
ATOM     76  CG  ASN A   5       7.588   4.495  18.523  0.00  0.00    +0.222 C 
ATOM     77  ND2 ASN A   5       7.113   5.662  18.949  0.00  0.00    -0.329 N 
ATOM     78 HD21 ASN A   5       6.324   5.686  19.626  0.00  0.00    +0.145 HD
ATOM     79 HD22 ASN A   5       7.531   6.550  18.606  0.00  0.00    +0.145 HD
ATOM     80  OD1 ASN A   5       7.134   3.412  18.894  0.00  0.00    -0.275 OA
ENDBRANCH  75  76
ENDBRANCH  43  75
ENDBRANCH   1  43
TORSDOF 28
REMARK  Name = ../refined-set-2016/3ekw/3ekw_pocket.pdb
REMARK  228 active torsions:
REMARK  status: ('A' for Active; 'I' for Inactive)
REMARK    1  A    between atoms: _1  and  _3
REMARK    2  A    between atoms: _3  and  _4
REMARK    3  A    between atoms: _3  and  _6
REMARK    4  A    between atoms: _6  and  _7
REMARK    5  A    between atoms: _7  and  _8
REMARK    6  A    between atoms: _8  and  _9
REMARK    7  A    between atoms: _18  and  _20
REMARK    8  A    between atoms: _20  and  _21
REMARK    9  A    between atoms: _20  and  _23
REMARK   10  A    between atoms: _23  and  _24
REMARK   11  A    between atoms: _27  and  _29
REMARK   12  A    between atoms: _29  and  _30
REMARK   13  A    between atoms: _29  and  _32
REMARK   14  A    between atoms: _32  and  _33
REMARK   15  A    between atoms: _36  and  _38
REMARK   16  A    between atoms: _38  and  _39
REMARK   17  A    between atoms: _38  and  _41
REMARK   18  A    between atoms: _41  and  _42
REMARK   19  A    between atoms: _45  and  _47
REMARK   20  A    between atoms: _47  and  _48
REMARK   21  A    between atoms: _47  and  _50
REMARK   22  A    between atoms: _50  and  _51
REMARK   23  A    between atoms: _54  and  _56
REMARK   24  A    between atoms: _56  and  _57
REMARK   25  A    between atoms: _59  and  _61
REMARK   26  A    between atoms: _61  and  _62
REMARK   27  A    between atoms: _65  and  _67
REMARK   28  A    between atoms: _67  and  _68
REMARK   29  A    between atoms: _67  and  _70
REMARK   30  A    between atoms: _70  and  _71
REMARK   31  A    between atoms: _74  and  _76
REMARK   32  A    between atoms: _76  and  _77
REMARK   33  A    between atoms: _76  and  _79
REMARK   34  A    between atoms: _79  and  _80
REMARK   35  A    between atoms: _83  and  _85
REMARK   36  A    between atoms: _85  and  _86
REMARK   37  A    between atoms: _85  and  _88
REMARK   38  A    between atoms: _88  and  _89
REMARK   39  A    between atoms: _92  and  _94
REMARK   40  A    between atoms: _94  and  _95
REMARK   41  A    between atoms: _94  and  _97
REMARK   42  A    between atoms: _100  and  _102
REMARK   43  A    between atoms: _102  and  _103
REMARK   44  A    between atoms: _102  and  _105
REMARK   45  A    between atoms: _105  and  _106
REMARK   46  A    between atoms: _106  and  _107
REMARK   47  A    between atoms: _107  and  _108
REMARK   48  A    between atoms: _108  and  _109
REMARK   49  A    between atoms: _113  and  _115
REMARK   50  A    between atoms: _115  and  _116
REMARK   51  A    between atoms: _115  and  _118
REMARK   52  A    between atoms: _118  and  _119
REMARK   53  A    between atoms: _119  and  _120
REMARK   54  A    between atoms: _122  and  _124
REMARK   55  A    between atoms: _124  and  _125
REMARK   56  A    between atoms: _124  and  _127
REMARK   57  A    between atoms: _127  and  _128
REMARK   58  A    between atoms: _131  and  _133
REMARK   59  A    between atoms: _133  and  _134
REMARK   60  A    between atoms: _133  and  _136
REMARK   61  A    between atoms: _139  and  _141
REMARK   62  A    between atoms: _141  and  _142
REMARK   63  A    between atoms: _144  and  _146
REMARK   64  A    between atoms: _146  and  _147
REMARK   65  A    between atoms: _146  and  _149
REMARK   66  A    between atoms: _149  and  _150
REMARK   67  A    between atoms: _153  and  _155
REMARK   68  A    between atoms: _155  and  _156
REMARK   69  A    between atoms: _158  and  _160
REMARK   70  A    between atoms: _160  and  _161
REMARK   71  A    between atoms: _163  and  _165
REMARK   72  A    between atoms: _165  and  _166
REMARK   73  A    between atoms: _165  and  _168
REMARK   74  A    between atoms: _171  and  _173
REMARK   75  A    between atoms: _173  and  _174
REMARK   76  A    between atoms: _173  and  _176
REMARK   77  A    between atoms: _179  and  _181
REMARK   78  A    between atoms: _181  and  _182
REMARK   79  A    between atoms: _181  and  _184
REMARK   80  A    between atoms: _184  and  _185
REMARK   81  A    between atoms: _188  and  _190
REMARK   82  A    between atoms: _190  and  _191
REMARK   83  A    between atoms: _190  and  _193
REMARK   84  A    between atoms: _193  and  _194
REMARK   85  A    between atoms: _198  and  _199
REMARK   86  A    between atoms: _204  and  _206
REMARK   87  A    between atoms: _206  and  _207
REMARK   88  A    between atoms: _210  and  _212
REMARK   89  A    between atoms: _212  and  _213
REMARK   90  A    between atoms: _212  and  _215
REMARK   91  A    between atoms: _215  and  _216
REMARK   92  A    between atoms: _221  and  _223
REMARK   93  A    between atoms: _223  and  _224
REMARK   94  A    between atoms: _223  and  _226
REMARK   95  A    between atoms: _226  and  _227
REMARK   96  A    between atoms: _230  and  _232
REMARK   97  A    between atoms: _232  and  _233
REMARK   98  A    between atoms: _232  and  _235
REMARK   99  A    between atoms: _235  and  _236
REMARK  100  A    between atoms: _239  and  _241
REMARK  101  A    between atoms: _241  and  _242
REMARK  102  A    between atoms: _244  and  _246
REMARK  103  A    between atoms: _246  and  _247
REMARK  104  A    between atoms: _246  and  _249
REMARK  105  A    between atoms: _249  and  _250
REMARK  106  A    between atoms: _250  and  _251
REMARK  107  A    between atoms: _251  and  _252
REMARK  108  A    between atoms: _261  and  _263
REMARK  109  A    between atoms: _263  and  _264
REMARK  110  A    between atoms: _263  and  _266
REMARK  111  A    between atoms: _266  and  _267
REMARK  112  A    between atoms: _267  and  _268
REMARK  113  A    between atoms: _268  and  _269
REMARK  114  A    between atoms: _278  and  _280
REMARK  115  A    between atoms: _280  and  _281
REMARK  116  A    between atoms: _280  and  _283
REMARK  117  A    between atoms: _283  and  _284
REMARK  118  A    between atoms: _287  and  _289
REMARK  119  A    between atoms: _289  and  _290
REMARK  120  A    between atoms: _289  and  _292
REMARK  121  A    between atoms: _292  and  _293
REMARK  122  A    between atoms: _296  and  _298
REMARK  123  A    between atoms: _298  and  _299
REMARK  124  A    between atoms: _298  and  _301
REMARK  125  A    between atoms: _301  and  _302
REMARK  126  A    between atoms: _305  and  _307
REMARK  127  A    between atoms: _307  and  _308
REMARK  128  A    between atoms: _307  and  _310
REMARK  129  A    between atoms: _310  and  _311
REMARK  130  A    between atoms: _314  and  _316
REMARK  131  A    between atoms: _316  and  _317
REMARK  132  A    between atoms: _316  and  _319
REMARK  133  A    between atoms: _319  and  _320
REMARK  134  A    between atoms: _323  and  _325
REMARK  135  A    between atoms: _325  and  _326
REMARK  136  A    between atoms: _328  and  _330
REMARK  137  A    between atoms: _330  and  _331
REMARK  138  A    between atoms: _334  and  _336
REMARK  139  A    between atoms: _336  and  _337
REMARK  140  A    between atoms: _336  and  _339
REMARK  141  A    between atoms: _339  and  _340
REMARK  142  A    between atoms: _343  and  _345
REMARK  143  A    between atoms: _345  and  _346
REMARK  144  A    between atoms: _345  and  _348
REMARK  145  A    between atoms: _348  and  _349
REMARK  146  A    between atoms: _352  and  _354
REMARK  147  A    between atoms: _354  and  _355
REMARK  148  A    between atoms: _354  and  _357
REMARK  149  A    between atoms: _357  and  _358
REMARK  150  A    between atoms: _361  and  _363
REMARK  151  A    between atoms: _363  and  _364
REMARK  152  A    between atoms: _363  and  _366
REMARK  153  A    between atoms: _369  and  _371
REMARK  154  A    between atoms: _371  and  _372
REMARK  155  A    between atoms: _371  and  _374
REMARK  156  A    between atoms: _374  and  _375
REMARK  157  A    between atoms: _375  and  _376
REMARK  158  A    between atoms: _379  and  _381
REMARK  159  A    between atoms: _381  and  _382
REMARK  160  A    between atoms: _381  and  _384
REMARK  161  A    between atoms: _384  and  _385
REMARK  162  A    between atoms: _385  and  _386
REMARK  163  A    between atoms: _386  and  _387
REMARK  164  A    between atoms: _387  and  _388
REMARK  165  A    between atoms: _392  and  _394
REMARK  166  A    between atoms: _394  and  _395
REMARK  167  A    between atoms: _394  and  _397
REMARK  168  A    between atoms: _397  and  _398
REMARK  169  A    between atoms: _398  and  _399
REMARK  170  A    between atoms: _401  and  _403
REMARK  171  A    between atoms: _403  and  _404
REMARK  172  A    between atoms: _403  and  _406
REMARK  173  A    between atoms: _406  and  _407
REMARK  174  A    between atoms: _410  and  _412
REMARK  175  A    between atoms: _412  and  _413
REMARK  176  A    between atoms: _412  and  _415
REMARK  177  A    between atoms: _418  and  _420
REMARK  178  A    between atoms: _420  and  _421
REMARK  179  A    between atoms: _423  and  _425
REMARK  180  A    between atoms: _425  and  _426
REMARK  181  A    between atoms: _425  and  _428
REMARK  182  A    between atoms: _428  and  _429
REMARK  183  A    between atoms: _432  and  _434
REMARK  184  A    between atoms: _434  and  _435
REMARK  185  A    between atoms: _437  and  _439
REMARK  186  A    between atoms: _439  and  _440
REMARK  187  A    between atoms: _442  and  _444
REMARK  188  A    between atoms: _444  and  _445
REMARK  189  A    between atoms: _444  and  _447
REMARK  190  A    between atoms: _447  and  _448
REMARK  191  A    between atoms: _454  and  _456
REMARK  192  A    between atoms: _456  and  _457
REMARK  193  A    between atoms: _456  and  _459
REMARK  194  A    between atoms: _462  and  _464
REMARK  195  A    between atoms: _464  and  _465
REMARK  196  A    between atoms: _464  and  _467
REMARK  197  A    between atoms: _470  and  _472
REMARK  198  A    between atoms: _472  and  _473
REMARK  199  A    between atoms: _472  and  _475
REMARK  200  A    between atoms: _475  and  _476
REMARK  201  A    between atoms: _480  and  _481
REMARK  202  A    between atoms: _486  and  _488
REMARK  203  A    between atoms: _488  and  _489
REMARK  204  A    between atoms: _488  and  _491
REMARK  205  A    between atoms: _491  and  _492
REMARK  206  A    between atoms: _496  and  _497
REMARK  207  A    between atoms: _502  and  _504
REMARK  208  A    between atoms: _504  and  _505
REMARK  209  A    between atoms: _508  and  _510
REMARK  210  A    between atoms: _510  and  _511
REMARK  211  A    between atoms: _510  and  _513
REMARK  212  A    between atoms: _513  and  _514
REMARK  213  A    between atoms: _519  and  _521
REMARK  214  A    between atoms: _521  and  _522
REMARK  215  A    between atoms: _521  and  _524
REMARK  216  A    between atoms: _524  and  _525
REMARK  217  A    between atoms: _528  and  _530
REMARK  218  A    between atoms: _530  and  _531
REMARK  219  A    between atoms: _530  and  _533
REMARK  220  A    between atoms: _533  and  _534
REMARK  221  A    between atoms: _537  and  _539
REMARK  222  A    between atoms: _539  and  _540
REMARK  223  A    between atoms: _542  and  _544
REMARK  224  A    between atoms: _544  and  _545
REMARK  225  A    between atoms: _544  and  _547
REMARK  226  A    between atoms: _547  and  _548
REMARK  227  A    between atoms: _548  and  _549
REMARK  228  A    between atoms: _549  and  _550
REMARK                            x       y       z     vdW  Elec       q    Type
REMARK                         _______ _______ _______ _____ _____    ______ ____
ROOT
ATOM      1  O   HOH     1      20.212   6.506  18.123  0.00  0.00    +0.000 OA
ENDROOT
TORSDOF 0
REMARK  Name = ../refined-set-2016/3ekw/3ekw_pocket.pdb
REMARK  228 active torsions:
REMARK  status: ('A' for Active; 'I' for Inactive)
REMARK    1  A    between atoms: _1  and  _3
REMARK    2  A    between atoms: _3  and  _4
REMARK    3  A    between atoms: _3  and  _6
REMARK    4  A    between atoms: _6  and  _7
REMARK    5  A    between atoms: _7  and  _8
REMARK    6  A    between atoms: _8  and  _9
REMARK    7  A    between atoms: _18  and  _20
REMARK    8  A    between atoms: _20  and  _21
REMARK    9  A    between atoms: _20  and  _23
REMARK   10  A    between atoms: _23  and  _24
REMARK   11  A    between atoms: _27  and  _29
REMARK   12  A    between atoms: _29  and  _30
REMARK   13  A    between atoms: _29  and  _32
REMARK   14  A    between atoms: _32  and  _33
REMARK   15  A    between atoms: _36  and  _38
REMARK   16  A    between atoms: _38  and  _39
REMARK   17  A    between atoms: _38  and  _41
REMARK   18  A    between atoms: _41  and  _42
REMARK   19  A    between atoms: _45  and  _47
REMARK   20  A    between atoms: _47  and  _48
REMARK   21  A    between atoms: _47  and  _50
REMARK   22  A    between atoms: _50  and  _51
REMARK   23  A    between atoms: _54  and  _56
REMARK   24  A    between atoms: _56  and  _57
REMARK   25  A    between atoms: _59  and  _61
REMARK   26  A    between atoms: _61  and  _62
REMARK   27  A    between atoms: _65  and  _67
REMARK   28  A    between atoms: _67  and  _68
REMARK   29  A    between atoms: _67  and  _70
REMARK   30  A    between atoms: _70  and  _71
REMARK   31  A    between atoms: _74  and  _76
REMARK   32  A    between atoms: _76  and  _77
REMARK   33  A    between atoms: _76  and  _79
REMARK   34  A    between atoms: _79  and  _80
REMARK   35  A    between atoms: _83  and  _85
REMARK   36  A    between atoms: _85  and  _86
REMARK   37  A    between atoms: _85  and  _88
REMARK   38  A    between atoms: _88  and  _89
REMARK   39  A    between atoms: _92  and  _94
REMARK   40  A    between atoms: _94  and  _95
REMARK   41  A    between atoms: _94  and  _97
REMARK   42  A    between atoms: _100  and  _102
REMARK   43  A    between atoms: _102  and  _103
REMARK   44  A    between atoms: _102  and  _105
REMARK   45  A    between atoms: _105  and  _106
REMARK   46  A    between atoms: _106  and  _107
REMARK   47  A    between atoms: _107  and  _108
REMARK   48  A    between atoms: _108  and  _109
REMARK   49  A    between atoms: _113  and  _115
REMARK   50  A    between atoms: _115  and  _116
REMARK   51  A    between atoms: _115  and  _118
REMARK   52  A    between atoms: _118  and  _119
REMARK   53  A    between atoms: _119  and  _120
REMARK   54  A    between atoms: _122  and  _124
REMARK   55  A    between atoms: _124  and  _125
REMARK   56  A    between atoms: _124  and  _127
REMARK   57  A    between atoms: _127  and  _128
REMARK   58  A    between atoms: _131  and  _133
REMARK   59  A    between atoms: _133  and  _134
REMARK   60  A    between atoms: _133  and  _136
REMARK   61  A    between atoms: _139  and  _141
REMARK   62  A    between atoms: _141  and  _142
REMARK   63  A    between atoms: _144  and  _146
REMARK   64  A    between atoms: _146  and  _147
REMARK   65  A    between atoms: _146  and  _149
REMARK   66  A    between atoms: _149  and  _150
REMARK   67  A    between atoms: _153  and  _155
REMARK   68  A    between atoms: _155  and  _156
REMARK   69  A    between atoms: _158  and  _160
REMARK   70  A    between atoms: _160  and  _161
REMARK   71  A    between atoms: _163  and  _165
REMARK   72  A    between atoms: _165  and  _166
REMARK   73  A    between atoms: _165  and  _168
REMARK   74  A    between atoms: _171  and  _173
REMARK   75  A    between atoms: _173  and  _174
REMARK   76  A    between atoms: _173  and  _176
REMARK   77  A    between atoms: _179  and  _181
REMARK   78  A    between atoms: _181  and  _182
REMARK   79  A    between atoms: _181  and  _184
REMARK   80  A    between atoms: _184  and  _185
REMARK   81  A    between atoms: _188  and  _190
REMARK   82  A    between atoms: _190  and  _191
REMARK   83  A    between atoms: _190  and  _193
REMARK   84  A    between atoms: _193  and  _194
REMARK   85  A    between atoms: _198  and  _199
REMARK   86  A    between atoms: _204  and  _206
REMARK   87  A    between atoms: _206  and  _207
REMARK   88  A    between atoms: _210  and  _212
REMARK   89  A    between atoms: _212  and  _213
REMARK   90  A    between atoms: _212  and  _215
REMARK   91  A    between atoms: _215  and  _216
REMARK   92  A    between atoms: _221  and  _223
REMARK   93  A    between atoms: _223  and  _224
REMARK   94  A    between atoms: _223  and  _226
REMARK   95  A    between atoms: _226  and  _227
REMARK   96  A    between atoms: _230  and  _232
REMARK   97  A    between atoms: _232  and  _233
REMARK   98  A    between atoms: _232  and  _235
REMARK   99  A    between atoms: _235  and  _236
REMARK  100  A    between atoms: _239  and  _241
REMARK  101  A    between atoms: _241  and  _242
REMARK  102  A    between atoms: _244  and  _246
REMARK  103  A    between atoms: _246  and  _247
REMARK  104  A    between atoms: _246  and  _249
REMARK  105  A    between atoms: _249  and  _250
REMARK  106  A    between atoms: _250  and  _251
REMARK  107  A    between atoms: _251  and  _252
REMARK  108  A    between atoms: _261  and  _263
REMARK  109  A    between atoms: _263  and  _264
REMARK  110  A    between atoms: _263  and  _266
REMARK  111  A    between atoms: _266  and  _267
REMARK  112  A    between atoms: _267  and  _268
REMARK  113  A    between atoms: _268  and  _269
REMARK  114  A    between atoms: _278  and  _280
REMARK  115  A    between atoms: _280  and  _281
REMARK  116  A    between atoms: _280  and  _283
REMARK  117  A    between atoms: _283  and  _284
REMARK  118  A    between atoms: _287  and  _289
REMARK  119  A    between atoms: _289  and  _290
REMARK  120  A    between atoms: _289  and  _292
REMARK  121  A    between atoms: _292  and  _293
REMARK  122  A    between atoms: _296  and  _298
REMARK  123  A    between atoms: _298  and  _299
REMARK  124  A    between atoms: _298  and  _301
REMARK  125  A    between atoms: _301  and  _302
REMARK  126  A    between atoms: _305  and  _307
REMARK  127  A    between atoms: _307  and  _308
REMARK  128  A    between atoms: _307  and  _310
REMARK  129  A    between atoms: _310  and  _311
REMARK  130  A    between atoms: _314  and  _316
REMARK  131  A    between atoms: _316  and  _317
REMARK  132  A    between atoms: _316  and  _319
REMARK  133  A    between atoms: _319  and  _320
REMARK  134  A    between atoms: _323  and  _325
REMARK  135  A    between atoms: _325  and  _326
REMARK  136  A    between atoms: _328  and  _330
REMARK  137  A    between atoms: _330  and  _331
REMARK  138  A    between atoms: _334  and  _336
REMARK  139  A    between atoms: _336  and  _337
REMARK  140  A    between atoms: _336  and  _339
REMARK  141  A    between atoms: _339  and  _340
REMARK  142  A    between atoms: _343  and  _345
REMARK  143  A    between atoms: _345  and  _346
REMARK  144  A    between atoms: _345  and  _348
REMARK  145  A    between atoms: _348  and  _349
REMARK  146  A    between atoms: _352  and  _354
REMARK  147  A    between atoms: _354  and  _355
REMARK  148  A    between atoms: _354  and  _357
REMARK  149  A    between atoms: _357  and  _358
REMARK  150  A    between atoms: _361  and  _363
REMARK  151  A    between atoms: _363  and  _364
REMARK  152  A    between atoms: _363  and  _366
REMARK  153  A    between atoms: _369  and  _371
REMARK  154  A    between atoms: _371  and  _372
REMARK  155  A    between atoms: _371  and  _374
REMARK  156  A    between atoms: _374  and  _375
REMARK  157  A    between atoms: _375  and  _376
REMARK  158  A    between atoms: _379  and  _381
REMARK  159  A    between atoms: _381  and  _382
REMARK  160  A    between atoms: _381  and  _384
REMARK  161  A    between atoms: _384  and  _385
REMARK  162  A    between atoms: _385  and  _386
REMARK  163  A    between atoms: _386  and  _387
REMARK  164  A    between atoms: _387  and  _388
REMARK  165  A    between atoms: _392  and  _394
REMARK  166  A    between atoms: _394  and  _395
REMARK  167  A    between atoms: _394  and  _397
REMARK  168  A    between atoms: _397  and  _398
REMARK  169  A    between atoms: _398  and  _399
REMARK  170  A    between atoms: _401  and  _403
REMARK  171  A    between atoms: _403  and  _404
REMARK  172  A    between atoms: _403  and  _406
REMARK  173  A    between atoms: _406  and  _407
REMARK  174  A    between atoms: _410  and  _412
REMARK  175  A    between atoms: _412  and  _413
REMARK  176  A    between atoms: _412  and  _415
REMARK  177  A    between atoms: _418  and  _420
REMARK  178  A    between atoms: _420  and  _421
REMARK  179  A    between atoms: _423  and  _425
REMARK  180  A    between atoms: _425  and  _426
REMARK  181  A    between atoms: _425  and  _428
REMARK  182  A    between atoms: _428  and  _429
REMARK  183  A    between atoms: _432  and  _434
REMARK  184  A    between atoms: _434  and  _435
REMARK  185  A    between atoms: _437  and  _439
REMARK  186  A    between atoms: _439  and  _440
REMARK  187  A    between atoms: _442  and  _444
REMARK  188  A    between atoms: _444  and  _445
REMARK  189  A    between atoms: _444  and  _447
REMARK  190  A    between atoms: _447  and  _448
REMARK  191  A    between atoms: _454  and  _456
REMARK  192  A    between atoms: _456  and  _457
REMARK  193  A    between atoms: _456  and  _459
REMARK  194  A    between atoms: _462  and  _464
REMARK  195  A    between atoms: _464  and  _465
REMARK  196  A    between atoms: _464  and  _467
REMARK  197  A    between atoms: _470  and  _472
REMARK  198  A    between atoms: _472  and  _473
REMARK  199  A    between atoms: _472  and  _475
REMARK  200  A    between atoms: _475  and  _476
REMARK  201  A    between atoms: _480  and  _481
REMARK  202  A    between atoms: _486  and  _488
REMARK  203  A    between atoms: _488  and  _489
REMARK  204  A    between atoms: _488  and  _491
REMARK  205  A    between atoms: _491  and  _492
REMARK  206  A    between atoms: _496  and  _497
REMARK  207  A    between atoms: _502  and  _504
REMARK  208  A    between atoms: _504  and  _505
REMARK  209  A    between atoms: _508  and  _510
REMARK  210  A    between atoms: _510  and  _511
REMARK  211  A    between atoms: _510  and  _513
REMARK  212  A    between atoms: _513  and  _514
REMARK  213  A    between atoms: _519  and  _521
REMARK  214  A    between atoms: _521  and  _522
REMARK  215  A    between atoms: _521  and  _524
REMARK  216  A    between atoms: _524  and  _525
REMARK  217  A    between atoms: _528  and  _530
REMARK  218  A    between atoms: _530  and  _531
REMARK  219  A    between atoms: _530  and  _533
REMARK  220  A    between atoms: _533  and  _534
REMARK  221  A    between atoms: _537  and  _539
REMARK  222  A    between atoms: _539  and  _540
REMARK  223  A    between atoms: _542  and  _544
REMARK  224  A    between atoms: _544  and  _545
REMARK  225  A    between atoms: _544  and  _547
REMARK  226  A    between atoms: _547  and  _548
REMARK  227  A    between atoms: _548  and  _549
REMARK  228  A    between atoms: _549  and  _550
REMARK                            x       y       z     vdW  Elec       q    Type
REMARK                         _______ _______ _______ _____ _____    ______ ____
ROOT
ATOM      1  O   HOH     1      31.657   5.971  18.579  0.00  0.00    +0.000 OA
ENDROOT
TORSDOF 0
REMARK  Name = ../refined-set-2016/3ekw/3ekw_pocket.pdb
REMARK  228 active torsions:
REMARK  status: ('A' for Active; 'I' for Inactive)
REMARK    1  A    between atoms: _1  and  _3
REMARK    2  A    between atoms: _3  and  _4
REMARK    3  A    between atoms: _3  and  _6
REMARK    4  A    between atoms: _6  and  _7
REMARK    5  A    between atoms: _7  and  _8
REMARK    6  A    between atoms: _8  and  _9
REMARK    7  A    between atoms: _18  and  _20
REMARK    8  A    between atoms: _20  and  _21
REMARK    9  A    between atoms: _20  and  _23
REMARK   10  A    between atoms: _23  and  _24
REMARK   11  A    between atoms: _27  and  _29
REMARK   12  A    between atoms: _29  and  _30
REMARK   13  A    between atoms: _29  and  _32
REMARK   14  A    between atoms: _32  and  _33
REMARK   15  A    between atoms: _36  and  _38
REMARK   16  A    between atoms: _38  and  _39
REMARK   17  A    between atoms: _38  and  _41
REMARK   18  A    between atoms: _41  and  _42
REMARK   19  A    between atoms: _45  and  _47
REMARK   20  A    between atoms: _47  and  _48
REMARK   21  A    between atoms: _47  and  _50
REMARK   22  A    between atoms: _50  and  _51
REMARK   23  A    between atoms: _54  and  _56
REMARK   24  A    between atoms: _56  and  _57
REMARK   25  A    between atoms: _59  and  _61
REMARK   26  A    between atoms: _61  and  _62
REMARK   27  A    between atoms: _65  and  _67
REMARK   28  A    between atoms: _67  and  _68
REMARK   29  A    between atoms: _67  and  _70
REMARK   30  A    between atoms: _70  and  _71
REMARK   31  A    between atoms: _74  and  _76
REMARK   32  A    between atoms: _76  and  _77
REMARK   33  A    between atoms: _76  and  _79
REMARK   34  A    between atoms: _79  and  _80
REMARK   35  A    between atoms: _83  and  _85
REMARK   36  A    between atoms: _85  and  _86
REMARK   37  A    between atoms: _85  and  _88
REMARK   38  A    between atoms: _88  and  _89
REMARK   39  A    between atoms: _92  and  _94
REMARK   40  A    between atoms: _94  and  _95
REMARK   41  A    between atoms: _94  and  _97
REMARK   42  A    between atoms: _100  and  _102
REMARK   43  A    between atoms: _102  and  _103
REMARK   44  A    between atoms: _102  and  _105
REMARK   45  A    between atoms: _105  and  _106
REMARK   46  A    between atoms: _106  and  _107
REMARK   47  A    between atoms: _107  and  _108
REMARK   48  A    between atoms: _108  and  _109
REMARK   49  A    between atoms: _113  and  _115
REMARK   50  A    between atoms: _115  and  _116
REMARK   51  A    between atoms: _115  and  _118
REMARK   52  A    between atoms: _118  and  _119
REMARK   53  A    between atoms: _119  and  _120
REMARK   54  A    between atoms: _122  and  _124
REMARK   55  A    between atoms: _124  and  _125
REMARK   56  A    between atoms: _124  and  _127
REMARK   57  A    between atoms: _127  and  _128
REMARK   58  A    between atoms: _131  and  _133
REMARK   59  A    between atoms: _133  and  _134
REMARK   60  A    between atoms: _133  and  _136
REMARK   61  A    between atoms: _139  and  _141
REMARK   62  A    between atoms: _141  and  _142
REMARK   63  A    between atoms: _144  and  _146
REMARK   64  A    between atoms: _146  and  _147
REMARK   65  A    between atoms: _146  and  _149
REMARK   66  A    between atoms: _149  and  _150
REMARK   67  A    between atoms: _153  and  _155
REMARK   68  A    between atoms: _155  and  _156
REMARK   69  A    between atoms: _158  and  _160
REMARK   70  A    between atoms: _160  and  _161
REMARK   71  A    between atoms: _163  and  _165
REMARK   72  A    between atoms: _165  and  _166
REMARK   73  A    between atoms: _165  and  _168
REMARK   74  A    between atoms: _171  and  _173
REMARK   75  A    between atoms: _173  and  _174
REMARK   76  A    between atoms: _173  and  _176
REMARK   77  A    between atoms: _179  and  _181
REMARK   78  A    between atoms: _181  and  _182
REMARK   79  A    between atoms: _181  and  _184
REMARK   80  A    between atoms: _184  and  _185
REMARK   81  A    between atoms: _188  and  _190
REMARK   82  A    between atoms: _190  and  _191
REMARK   83  A    between atoms: _190  and  _193
REMARK   84  A    between atoms: _193  and  _194
REMARK   85  A    between atoms: _198  and  _199
REMARK   86  A    between atoms: _204  and  _206
REMARK   87  A    between atoms: _206  and  _207
REMARK   88  A    between atoms: _210  and  _212
REMARK   89  A    between atoms: _212  and  _213
REMARK   90  A    between atoms: _212  and  _215
REMARK   91  A    between atoms: _215  and  _216
REMARK   92  A    between atoms: _221  and  _223
REMARK   93  A    between atoms: _223  and  _224
REMARK   94  A    between atoms: _223  and  _226
REMARK   95  A    between atoms: _226  and  _227
REMARK   96  A    between atoms: _230  and  _232
REMARK   97  A    between atoms: _232  and  _233
REMARK   98  A    between atoms: _232  and  _235
REMARK   99  A    between atoms: _235  and  _236
REMARK  100  A    between atoms: _239  and  _241
REMARK  101  A    between atoms: _241  and  _242
REMARK  102  A    between atoms: _244  and  _246
REMARK  103  A    between atoms: _246  and  _247
REMARK  104  A    between atoms: _246  and  _249
REMARK  105  A    between atoms: _249  and  _250
REMARK  106  A    between atoms: _250  and  _251
REMARK  107  A    between atoms: _251  and  _252
REMARK  108  A    between atoms: _261  and  _263
REMARK  109  A    between atoms: _263  and  _264
REMARK  110  A    between atoms: _263  and  _266
REMARK  111  A    between atoms: _266  and  _267
REMARK  112  A    between atoms: _267  and  _268
REMARK  113  A    between atoms: _268  and  _269
REMARK  114  A    between atoms: _278  and  _280
REMARK  115  A    between atoms: _280  and  _281
REMARK  116  A    between atoms: _280  and  _283
REMARK  117  A    between atoms: _283  and  _284
REMARK  118  A    between atoms: _287  and  _289
REMARK  119  A    between atoms: _289  and  _290
REMARK  120  A    between atoms: _289  and  _292
REMARK  121  A    between atoms: _292  and  _293
REMARK  122  A    between atoms: _296  and  _298
REMARK  123  A    between atoms: _298  and  _299
REMARK  124  A    between atoms: _298  and  _301
REMARK  125  A    between atoms: _301  and  _302
REMARK  126  A    between atoms: _305  and  _307
REMARK  127  A    between atoms: _307  and  _308
REMARK  128  A    between atoms: _307  and  _310
REMARK  129  A    between atoms: _310  and  _311
REMARK  130  A    between atoms: _314  and  _316
REMARK  131  A    between atoms: _316  and  _317
REMARK  132  A    between atoms: _316  and  _319
REMARK  133  A    between atoms: _319  and  _320
REMARK  134  A    between atoms: _323  and  _325
REMARK  135  A    between atoms: _325  and  _326
REMARK  136  A    between atoms: _328  and  _330
REMARK  137  A    between atoms: _330  and  _331
REMARK  138  A    between atoms: _334  and  _336
REMARK  139  A    between atoms: _336  and  _337
REMARK  140  A    between atoms: _336  and  _339
REMARK  141  A    between atoms: _339  and  _340
REMARK  142  A    between atoms: _343  and  _345
REMARK  143  A    between atoms: _345  and  _346
REMARK  144  A    between atoms: _345  and  _348
REMARK  145  A    between atoms: _348  and  _349
REMARK  146  A    between atoms: _352  and  _354
REMARK  147  A    between atoms: _354  and  _355
REMARK  148  A    between atoms: _354  and  _357
REMARK  149  A    between atoms: _357  and  _358
REMARK  150  A    between atoms: _361  and  _363
REMARK  151  A    between atoms: _363  and  _364
REMARK  152  A    between atoms: _363  and  _366
REMARK  153  A    between atoms: _369  and  _371
REMARK  154  A    between atoms: _371  and  _372
REMARK  155  A    between atoms: _371  and  _374
REMARK  156  A    between atoms: _374  and  _375
REMARK  157  A    between atoms: _375  and  _376
REMARK  158  A    between atoms: _379  and  _381
REMARK  159  A    between atoms: _381  and  _382
REMARK  160  A    between atoms: _381  and  _384
REMARK  161  A    between atoms: _384  and  _385
REMARK  162  A    between atoms: _385  and  _386
REMARK  163  A    between atoms: _386  and  _387
REMARK  164  A    between atoms: _387  and  _388
REMARK  165  A    between atoms: _392  and  _394
REMARK  166  A    between atoms: _394  and  _395
REMARK  167  A    between atoms: _394  and  _397
REMARK  168  A    between atoms: _397  and  _398
REMARK  169  A    between atoms: _398  and  _399
REMARK  170  A    between atoms: _401  and  _403
REMARK  171  A    between atoms: _403  and  _404
REMARK  172  A    between atoms: _403  and  _406
REMARK  173  A    between atoms: _406  and  _407
REMARK  174  A    between atoms: _410  and  _412
REMARK  175  A    between atoms: _412  and  _413
REMARK  176  A    between atoms: _412  and  _415
REMARK  177  A    between atoms: _418  and  _420
REMARK  178  A    between atoms: _420  and  _421
REMARK  179  A    between atoms: _423  and  _425
REMARK  180  A    between atoms: _425  and  _426
REMARK  181  A    between atoms: _425  and  _428
REMARK  182  A    between atoms: _428  and  _429
REMARK  183  A    between atoms: _432  and  _434
REMARK  184  A    between atoms: _434  and  _435
REMARK  185  A    between atoms: _437  and  _439
REMARK  186  A    between atoms: _439  and  _440
REMARK  187  A    between atoms: _442  and  _444
REMARK  188  A    between atoms: _444  and  _445
REMARK  189  A    between atoms: _444  and  _447
REMARK  190  A    between atoms: _447  and  _448
REMARK  191  A    between atoms: _454  and  _456
REMARK  192  A    between atoms: _456  and  _457
REMARK  193  A    between atoms: _456  and  _459
REMARK  194  A    between atoms: _462  and  _464
REMARK  195  A    between atoms: _464  and  _465
REMARK  196  A    between atoms: _464  and  _467
REMARK  197  A    between atoms: _470  and  _472
REMARK  198  A    between atoms: _472  and  _473
REMARK  199  A    between atoms: _472  and  _475
REMARK  200  A    between atoms: _475  and  _476
REMARK  201  A    between atoms: _480  and  _481
REMARK  202  A    between atoms: _486  and  _488
REMARK  203  A    between atoms: _488  and  _489
REMARK  204  A    between atoms: _488  and  _491
REMARK  205  A    between atoms: _491  and  _492
REMARK  206  A    between atoms: _496  and  _497
REMARK  207  A    between atoms: _502  and  _504
REMARK  208  A    between atoms: _504  and  _505
REMARK  209  A    between atoms: _508  and  _510
REMARK  210  A    between atoms: _510  and  _511
REMARK  211  A    between atoms: _510  and  _513
REMARK  212  A    between atoms: _513  and  _514
REMARK  213  A    between atoms: _519  and  _521
REMARK  214  A    between atoms: _521  and  _522
REMARK  215  A    between atoms: _521  and  _524
REMARK  216  A    between atoms: _524  and  _525
REMARK  217  A    between atoms: _528  and  _530
REMARK  218  A    between atoms: _530  and  _531
REMARK  219  A    between atoms: _530  and  _533
REMARK  220  A    between atoms: _533  and  _534
REMARK  221  A    between atoms: _537  and  _539
REMARK  222  A    between atoms: _539  and  _540
REMARK  223  A    between atoms: _542  and  _544
REMARK  224  A    between atoms: _544  and  _545
REMARK  225  A    between atoms: _544  and  _547
REMARK  226  A    between atoms: _547  and  _548
REMARK  227  A    between atoms: _548  and  _549
REMARK  228  A    between atoms: _549  and  _550
REMARK                            x       y       z     vdW  Elec       q    Type
REMARK                         _______ _______ _______ _____ _____    ______ ____
ROOT
ATOM      1  O   HOH     1      22.561  -6.552  11.264  0.00  0.00    +0.000 OA
ENDROOT
TORSDOF 0
REMARK  Name = ../refined-set-2016/3ekw/3ekw_pocket.pdb
REMARK  228 active torsions:
REMARK  status: ('A' for Active; 'I' for Inactive)
REMARK    1  A    between atoms: _1  and  _3
REMARK    2  A    between atoms: _3  and  _4
REMARK    3  A    between atoms: _3  and  _6
REMARK    4  A    between atoms: _6  and  _7
REMARK    5  A    between atoms: _7  and  _8
REMARK    6  A    between atoms: _8  and  _9
REMARK    7  A    between atoms: _18  and  _20
REMARK    8  A    between atoms: _20  and  _21
REMARK    9  A    between atoms: _20  and  _23
REMARK   10  A    between atoms: _23  and  _24
REMARK   11  A    between atoms: _27  and  _29
REMARK   12  A    between atoms: _29  and  _30
REMARK   13  A    between atoms: _29  and  _32
REMARK   14  A    between atoms: _32  and  _33
REMARK   15  A    between atoms: _36  and  _38
REMARK   16  A    between atoms: _38  and  _39
REMARK   17  A    between atoms: _38  and  _41
REMARK   18  A    between atoms: _41  and  _42
REMARK   19  A    between atoms: _45  and  _47
REMARK   20  A    between atoms: _47  and  _48
REMARK   21  A    between atoms: _47  and  _50
REMARK   22  A    between atoms: _50  and  _51
REMARK   23  A    between atoms: _54  and  _56
REMARK   24  A    between atoms: _56  and  _57
REMARK   25  A    between atoms: _59  and  _61
REMARK   26  A    between atoms: _61  and  _62
REMARK   27  A    between atoms: _65  and  _67
REMARK   28  A    between atoms: _67  and  _68
REMARK   29  A    between atoms: _67  and  _70
REMARK   30  A    between atoms: _70  and  _71
REMARK   31  A    between atoms: _74  and  _76
REMARK   32  A    between atoms: _76  and  _77
REMARK   33  A    between atoms: _76  and  _79
REMARK   34  A    between atoms: _79  and  _80
REMARK   35  A    between atoms: _83  and  _85
REMARK   36  A    between atoms: _85  and  _86
REMARK   37  A    between atoms: _85  and  _88
REMARK   38  A    between atoms: _88  and  _89
REMARK   39  A    between atoms: _92  and  _94
REMARK   40  A    between atoms: _94  and  _95
REMARK   41  A    between atoms: _94  and  _97
REMARK   42  A    between atoms: _100  and  _102
REMARK   43  A    between atoms: _102  and  _103
REMARK   44  A    between atoms: _102  and  _105
REMARK   45  A    between atoms: _105  and  _106
REMARK   46  A    between atoms: _106  and  _107
REMARK   47  A    between atoms: _107  and  _108
REMARK   48  A    between atoms: _108  and  _109
REMARK   49  A    between atoms: _113  and  _115
REMARK   50  A    between atoms: _115  and  _116
REMARK   51  A    between atoms: _115  and  _118
REMARK   52  A    between atoms: _118  and  _119
REMARK   53  A    between atoms: _119  and  _120
REMARK   54  A    between atoms: _122  and  _124
REMARK   55  A    between atoms: _124  and  _125
REMARK   56  A    between atoms: _124  and  _127
REMARK   57  A    between atoms: _127  and  _128
REMARK   58  A    between atoms: _131  and  _133
REMARK   59  A    between atoms: _133  and  _134
REMARK   60  A    between atoms: _133  and  _136
REMARK   61  A    between atoms: _139  and  _141
REMARK   62  A    between atoms: _141  and  _142
REMARK   63  A    between atoms: _144  and  _146
REMARK   64  A    between atoms: _146  and  _147
REMARK   65  A    between atoms: _146  and  _149
REMARK   66  A    between atoms: _149  and  _150
REMARK   67  A    between atoms: _153  and  _155
REMARK   68  A    between atoms: _155  and  _156
REMARK   69  A    between atoms: _158  and  _160
REMARK   70  A    between atoms: _160  and  _161
REMARK   71  A    between atoms: _163  and  _165
REMARK   72  A    between atoms: _165  and  _166
REMARK   73  A    between atoms: _165  and  _168
REMARK   74  A    between atoms: _171  and  _173
REMARK   75  A    between atoms: _173  and  _174
REMARK   76  A    between atoms: _173  and  _176
REMARK   77  A    between atoms: _179  and  _181
REMARK   78  A    between atoms: _181  and  _182
REMARK   79  A    between atoms: _181  and  _184
REMARK   80  A    between atoms: _184  and  _185
REMARK   81  A    between atoms: _188  and  _190
REMARK   82  A    between atoms: _190  and  _191
REMARK   83  A    between atoms: _190  and  _193
REMARK   84  A    between atoms: _193  and  _194
REMARK   85  A    between atoms: _198  and  _199
REMARK   86  A    between atoms: _204  and  _206
REMARK   87  A    between atoms: _206  and  _207
REMARK   88  A    between atoms: _210  and  _212
REMARK   89  A    between atoms: _212  and  _213
REMARK   90  A    between atoms: _212  and  _215
REMARK   91  A    between atoms: _215  and  _216
REMARK   92  A    between atoms: _221  and  _223
REMARK   93  A    between atoms: _223  and  _224
REMARK   94  A    between atoms: _223  and  _226
REMARK   95  A    between atoms: _226  and  _227
REMARK   96  A    between atoms: _230  and  _232
REMARK   97  A    between atoms: _232  and  _233
REMARK   98  A    between atoms: _232  and  _235
REMARK   99  A    between atoms: _235  and  _236
REMARK  100  A    between atoms: _239  and  _241
REMARK  101  A    between atoms: _241  and  _242
REMARK  102  A    between atoms: _244  and  _246
REMARK  103  A    between atoms: _246  and  _247
REMARK  104  A    between atoms: _246  and  _249
REMARK  105  A    between atoms: _249  and  _250
REMARK  106  A    between atoms: _250  and  _251
REMARK  107  A    between atoms: _251  and  _252
REMARK  108  A    between atoms: _261  and  _263
REMARK  109  A    between atoms: _263  and  _264
REMARK  110  A    between atoms: _263  and  _266
REMARK  111  A    between atoms: _266  and  _267
REMARK  112  A    between atoms: _267  and  _268
REMARK  113  A    between atoms: _268  and  _269
REMARK  114  A    between atoms: _278  and  _280
REMARK  115  A    between atoms: _280  and  _281
REMARK  116  A    between atoms: _280  and  _283
REMARK  117  A    between atoms: _283  and  _284
REMARK  118  A    between atoms: _287  and  _289
REMARK  119  A    between atoms: _289  and  _290
REMARK  120  A    between atoms: _289  and  _292
REMARK  121  A    between atoms: _292  and  _293
REMARK  122  A    between atoms: _296  and  _298
REMARK  123  A    between atoms: _298  and  _299
REMARK  124  A    between atoms: _298  and  _301
REMARK  125  A    between atoms: _301  and  _302
REMARK  126  A    between atoms: _305  and  _307
REMARK  127  A    between atoms: _307  and  _308
REMARK  128  A    between atoms: _307  and  _310
REMARK  129  A    between atoms: _310  and  _311
REMARK  130  A    between atoms: _314  and  _316
REMARK  131  A    between atoms: _316  and  _317
REMARK  132  A    between atoms: _316  and  _319
REMARK  133  A    between atoms: _319  and  _320
REMARK  134  A    between atoms: _323  and  _325
REMARK  135  A    between atoms: _325  and  _326
REMARK  136  A    between atoms: _328  and  _330
REMARK  137  A    between atoms: _330  and  _331
REMARK  138  A    between atoms: _334  and  _336
REMARK  139  A    between atoms: _336  and  _337
REMARK  140  A    between atoms: _336  and  _339
REMARK  141  A    between atoms: _339  and  _340
REMARK  142  A    between atoms: _343  and  _345
REMARK  143  A    between atoms: _345  and  _346
REMARK  144  A    between atoms: _345  and  _348
REMARK  145  A    between atoms: _348  and  _349
REMARK  146  A    between atoms: _352  and  _354
REMARK  147  A    between atoms: _354  and  _355
REMARK  148  A    between atoms: _354  and  _357
REMARK  149  A    between atoms: _357  and  _358
REMARK  150  A    between atoms: _361  and  _363
REMARK  151  A    between atoms: _363  and  _364
REMARK  152  A    between atoms: _363  and  _366
REMARK  153  A    between atoms: _369  and  _371
REMARK  154  A    between atoms: _371  and  _372
REMARK  155  A    between atoms: _371  and  _374
REMARK  156  A    between atoms: _374  and  _375
REMARK  157  A    between atoms: _375  and  _376
REMARK  158  A    between atoms: _379  and  _381
REMARK  159  A    between atoms: _381  and  _382
REMARK  160  A    between atoms: _381  and  _384
REMARK  161  A    between atoms: _384  and  _385
REMARK  162  A    between atoms: _385  and  _386
REMARK  163  A    between atoms: _386  and  _387
REMARK  164  A    between atoms: _387  and  _388
REMARK  165  A    between atoms: _392  and  _394
REMARK  166  A    between atoms: _394  and  _395
REMARK  167  A    between atoms: _394  and  _397
REMARK  168  A    between atoms: _397  and  _398
REMARK  169  A    between atoms: _398  and  _399
REMARK  170  A    between atoms: _401  and  _403
REMARK  171  A    between atoms: _403  and  _404
REMARK  172  A    between atoms: _403  and  _406
REMARK  173  A    between atoms: _406  and  _407
REMARK  174  A    between atoms: _410  and  _412
REMARK  175  A    between atoms: _412  and  _413
REMARK  176  A    between atoms: _412  and  _415
REMARK  177  A    between atoms: _418  and  _420
REMARK  178  A    between atoms: _420  and  _421
REMARK  179  A    between atoms: _423  and  _425
REMARK  180  A    between atoms: _425  and  _426
REMARK  181  A    between atoms: _425  and  _428
REMARK  182  A    between atoms: _428  and  _429
REMARK  183  A    between atoms: _432  and  _434
REMARK  184  A    between atoms: _434  and  _435
REMARK  185  A    between atoms: _437  and  _439
REMARK  186  A    between atoms: _439  and  _440
REMARK  187  A    between atoms: _442  and  _444
REMARK  188  A    between atoms: _444  and  _445
REMARK  189  A    between atoms: _444  and  _447
REMARK  190  A    between atoms: _447  and  _448
REMARK  191  A    between atoms: _454  and  _456
REMARK  192  A    between atoms: _456  and  _457
REMARK  193  A    between atoms: _456  and  _459
REMARK  194  A    between atoms: _462  and  _464
REMARK  195  A    between atoms: _464  and  _465
REMARK  196  A    between atoms: _464  and  _467
REMARK  197  A    between atoms: _470  and  _472
REMARK  198  A    between atoms: _472  and  _473
REMARK  199  A    between atoms: _472  and  _475
REMARK  200  A    between atoms: _475  and  _476
REMARK  201  A    between atoms: _480  and  _481
REMARK  202  A    between atoms: _486  and  _488
REMARK  203  A    between atoms: _488  and  _489
REMARK  204  A    between atoms: _488  and  _491
REMARK  205  A    between atoms: _491  and  _492
REMARK  206  A    between atoms: _496  and  _497
REMARK  207  A    between atoms: _502  and  _504
REMARK  208  A    between atoms: _504  and  _505
REMARK  209  A    between atoms: _508  and  _510
REMARK  210  A    between atoms: _510  and  _511
REMARK  211  A    between atoms: _510  and  _513
REMARK  212  A    between atoms: _513  and  _514
REMARK  213  A    between atoms: _519  and  _521
REMARK  214  A    between atoms: _521  and  _522
REMARK  215  A    between atoms: _521  and  _524
REMARK  216  A    between atoms: _524  and  _525
REMARK  217  A    between atoms: _528  and  _530
REMARK  218  A    between atoms: _530  and  _531
REMARK  219  A    between atoms: _530  and  _533
REMARK  220  A    between atoms: _533  and  _534
REMARK  221  A    between atoms: _537  and  _539
REMARK  222  A    between atoms: _539  and  _540
REMARK  223  A    between atoms: _542  and  _544
REMARK  224  A    between atoms: _544  and  _545
REMARK  225  A    between atoms: _544  and  _547
REMARK  226  A    between atoms: _547  and  _548
REMARK  227  A    between atoms: _548  and  _549
REMARK  228  A    between atoms: _549  and  _550
REMARK                            x       y       z     vdW  Elec       q    Type
REMARK                         _______ _______ _______ _____ _____    ______ ____
ROOT
ATOM      1  O   HOH     1      23.799   3.926  24.247  0.00  0.00    +0.000 OA
ENDROOT
TORSDOF 0
REMARK  Name = ../refined-set-2016/3ekw/3ekw_pocket.pdb
REMARK  228 active torsions:
REMARK  status: ('A' for Active; 'I' for Inactive)
REMARK    1  A    between atoms: _1  and  _3
REMARK    2  A    between atoms: _3  and  _4
REMARK    3  A    between atoms: _3  and  _6
REMARK    4  A    between atoms: _6  and  _7
REMARK    5  A    between atoms: _7  and  _8
REMARK    6  A    between atoms: _8  and  _9
REMARK    7  A    between atoms: _18  and  _20
REMARK    8  A    between atoms: _20  and  _21
REMARK    9  A    between atoms: _20  and  _23
REMARK   10  A    between atoms: _23  and  _24
REMARK   11  A    between atoms: _27  and  _29
REMARK   12  A    between atoms: _29  and  _30
REMARK   13  A    between atoms: _29  and  _32
REMARK   14  A    between atoms: _32  and  _33
REMARK   15  A    between atoms: _36  and  _38
REMARK   16  A    between atoms: _38  and  _39
REMARK   17  A    between atoms: _38  and  _41
REMARK   18  A    between atoms: _41  and  _42
REMARK   19  A    between atoms: _45  and  _47
REMARK   20  A    between atoms: _47  and  _48
REMARK   21  A    between atoms: _47  and  _50
REMARK   22  A    between atoms: _50  and  _51
REMARK   23  A    between atoms: _54  and  _56
REMARK   24  A    between atoms: _56  and  _57
REMARK   25  A    between atoms: _59  and  _61
REMARK   26  A    between atoms: _61  and  _62
REMARK   27  A    between atoms: _65  and  _67
REMARK   28  A    between atoms: _67  and  _68
REMARK   29  A    between atoms: _67  and  _70
REMARK   30  A    between atoms: _70  and  _71
REMARK   31  A    between atoms: _74  and  _76
REMARK   32  A    between atoms: _76  and  _77
REMARK   33  A    between atoms: _76  and  _79
REMARK   34  A    between atoms: _79  and  _80
REMARK   35  A    between atoms: _83  and  _85
REMARK   36  A    between atoms: _85  and  _86
REMARK   37  A    between atoms: _85  and  _88
REMARK   38  A    between atoms: _88  and  _89
REMARK   39  A    between atoms: _92  and  _94
REMARK   40  A    between atoms: _94  and  _95
REMARK   41  A    between atoms: _94  and  _97
REMARK   42  A    between atoms: _100  and  _102
REMARK   43  A    between atoms: _102  and  _103
REMARK   44  A    between atoms: _102  and  _105
REMARK   45  A    between atoms: _105  and  _106
REMARK   46  A    between atoms: _106  and  _107
REMARK   47  A    between atoms: _107  and  _108
REMARK   48  A    between atoms: _108  and  _109
REMARK   49  A    between atoms: _113  and  _115
REMARK   50  A    between atoms: _115  and  _116
REMARK   51  A    between atoms: _115  and  _118
REMARK   52  A    between atoms: _118  and  _119
REMARK   53  A    between atoms: _119  and  _120
REMARK   54  A    between atoms: _122  and  _124
REMARK   55  A    between atoms: _124  and  _125
REMARK   56  A    between atoms: _124  and  _127
REMARK   57  A    between atoms: _127  and  _128
REMARK   58  A    between atoms: _131  and  _133
REMARK   59  A    between atoms: _133  and  _134
REMARK   60  A    between atoms: _133  and  _136
REMARK   61  A    between atoms: _139  and  _141
REMARK   62  A    between atoms: _141  and  _142
REMARK   63  A    between atoms: _144  and  _146
REMARK   64  A    between atoms: _146  and  _147
REMARK   65  A    between atoms: _146  and  _149
REMARK   66  A    between atoms: _149  and  _150
REMARK   67  A    between atoms: _153  and  _155
REMARK   68  A    between atoms: _155  and  _156
REMARK   69  A    between atoms: _158  and  _160
REMARK   70  A    between atoms: _160  and  _161
REMARK   71  A    between atoms: _163  and  _165
REMARK   72  A    between atoms: _165  and  _166
REMARK   73  A    between atoms: _165  and  _168
REMARK   74  A    between atoms: _171  and  _173
REMARK   75  A    between atoms: _173  and  _174
REMARK   76  A    between atoms: _173  and  _176
REMARK   77  A    between atoms: _179  and  _181
REMARK   78  A    between atoms: _181  and  _182
REMARK   79  A    between atoms: _181  and  _184
REMARK   80  A    between atoms: _184  and  _185
REMARK   81  A    between atoms: _188  and  _190
REMARK   82  A    between atoms: _190  and  _191
REMARK   83  A    between atoms: _190  and  _193
REMARK   84  A    between atoms: _193  and  _194
REMARK   85  A    between atoms: _198  and  _199
REMARK   86  A    between atoms: _204  and  _206
REMARK   87  A    between atoms: _206  and  _207
REMARK   88  A    between atoms: _210  and  _212
REMARK   89  A    between atoms: _212  and  _213
REMARK   90  A    between atoms: _212  and  _215
REMARK   91  A    between atoms: _215  and  _216
REMARK   92  A    between atoms: _221  and  _223
REMARK   93  A    between atoms: _223  and  _224
REMARK   94  A    between atoms: _223  and  _226
REMARK   95  A    between atoms: _226  and  _227
REMARK   96  A    between atoms: _230  and  _232
REMARK   97  A    between atoms: _232  and  _233
REMARK   98  A    between atoms: _232  and  _235
REMARK   99  A    between atoms: _235  and  _236
REMARK  100  A    between atoms: _239  and  _241
REMARK  101  A    between atoms: _241  and  _242
REMARK  102  A    between atoms: _244  and  _246
REMARK  103  A    between atoms: _246  and  _247
REMARK  104  A    between atoms: _246  and  _249
REMARK  105  A    between atoms: _249  and  _250
REMARK  106  A    between atoms: _250  and  _251
REMARK  107  A    between atoms: _251  and  _252
REMARK  108  A    between atoms: _261  and  _263
REMARK  109  A    between atoms: _263  and  _264
REMARK  110  A    between atoms: _263  and  _266
REMARK  111  A    between atoms: _266  and  _267
REMARK  112  A    between atoms: _267  and  _268
REMARK  113  A    between atoms: _268  and  _269
REMARK  114  A    between atoms: _278  and  _280
REMARK  115  A    between atoms: _280  and  _281
REMARK  116  A    between atoms: _280  and  _283
REMARK  117  A    between atoms: _283  and  _284
REMARK  118  A    between atoms: _287  and  _289
REMARK  119  A    between atoms: _289  and  _290
REMARK  120  A    between atoms: _289  and  _292
REMARK  121  A    between atoms: _292  and  _293
REMARK  122  A    between atoms: _296  and  _298
REMARK  123  A    between atoms: _298  and  _299
REMARK  124  A    between atoms: _298  and  _301
REMARK  125  A    between atoms: _301  and  _302
REMARK  126  A    between atoms: _305  and  _307
REMARK  127  A    between atoms: _307  and  _308
REMARK  128  A    between atoms: _307  and  _310
REMARK  129  A    between atoms: _310  and  _311
REMARK  130  A    between atoms: _314  and  _316
REMARK  131  A    between atoms: _316  and  _317
REMARK  132  A    between atoms: _316  and  _319
REMARK  133  A    between atoms: _319  and  _320
REMARK  134  A    between atoms: _323  and  _325
REMARK  135  A    between atoms: _325  and  _326
REMARK  136  A    between atoms: _328  and  _330
REMARK  137  A    between atoms: _330  and  _331
REMARK  138  A    between atoms: _334  and  _336
REMARK  139  A    between atoms: _336  and  _337
REMARK  140  A    between atoms: _336  and  _339
REMARK  141  A    between atoms: _339  and  _340
REMARK  142  A    between atoms: _343  and  _345
REMARK  143  A    between atoms: _345  and  _346
REMARK  144  A    between atoms: _345  and  _348
REMARK  145  A    between atoms: _348  and  _349
REMARK  146  A    between atoms: _352  and  _354
REMARK  147  A    between atoms: _354  and  _355
REMARK  148  A    between atoms: _354  and  _357
REMARK  149  A    between atoms: _357  and  _358
REMARK  150  A    between atoms: _361  and  _363
REMARK  151  A    between atoms: _363  and  _364
REMARK  152  A    between atoms: _363  and  _366
REMARK  153  A    between atoms: _369  and  _371
REMARK  154  A    between atoms: _371  and  _372
REMARK  155  A    between atoms: _371  and  _374
REMARK  156  A    between atoms: _374  and  _375
REMARK  157  A    between atoms: _375  and  _376
REMARK  158  A    between atoms: _379  and  _381
REMARK  159  A    between atoms: _381  and  _382
REMARK  160  A    between atoms: _381  and  _384
REMARK  161  A    between atoms: _384  and  _385
REMARK  162  A    between atoms: _385  and  _386
REMARK  163  A    between atoms: _386  and  _387
REMARK  164  A    between atoms: _387  and  _388
REMARK  165  A    between atoms: _392  and  _394
REMARK  166  A    between atoms: _394  and  _395
REMARK  167  A    between atoms: _394  and  _397
REMARK  168  A    between atoms: _397  and  _398
REMARK  169  A    between atoms: _398  and  _399
REMARK  170  A    between atoms: _401  and  _403
REMARK  171  A    between atoms: _403  and  _404
REMARK  172  A    between atoms: _403  and  _406
REMARK  173  A    between atoms: _406  and  _407
REMARK  174  A    between atoms: _410  and  _412
REMARK  175  A    between atoms: _412  and  _413
REMARK  176  A    between atoms: _412  and  _415
REMARK  177  A    between atoms: _418  and  _420
REMARK  178  A    between atoms: _420  and  _421
REMARK  179  A    between atoms: _423  and  _425
REMARK  180  A    between atoms: _425  and  _426
REMARK  181  A    between atoms: _425  and  _428
REMARK  182  A    between atoms: _428  and  _429
REMARK  183  A    between atoms: _432  and  _434
REMARK  184  A    between atoms: _434  and  _435
REMARK  185  A    between atoms: _437  and  _439
REMARK  186  A    between atoms: _439  and  _440
REMARK  187  A    between atoms: _442  and  _444
REMARK  188  A    between atoms: _444  and  _445
REMARK  189  A    between atoms: _444  and  _447
REMARK  190  A    between atoms: _447  and  _448
REMARK  191  A    between atoms: _454  and  _456
REMARK  192  A    between atoms: _456  and  _457
REMARK  193  A    between atoms: _456  and  _459
REMARK  194  A    between atoms: _462  and  _464
REMARK  195  A    between atoms: _464  and  _465
REMARK  196  A    between atoms: _464  and  _467
REMARK  197  A    between atoms: _470  and  _472
REMARK  198  A    between atoms: _472  and  _473
REMARK  199  A    between atoms: _472  and  _475
REMARK  200  A    between atoms: _475  and  _476
REMARK  201  A    between atoms: _480  and  _481
REMARK  202  A    between atoms: _486  and  _488
REMARK  203  A    between atoms: _488  and  _489
REMARK  204  A    between atoms: _488  and  _491
REMARK  205  A    between atoms: _491  and  _492
REMARK  206  A    between atoms: _496  and  _497
REMARK  207  A    between atoms: _502  and  _504
REMARK  208  A    between atoms: _504  and  _505
REMARK  209  A    between atoms: _508  and  _510
REMARK  210  A    between atoms: _510  and  _511
REMARK  211  A    between atoms: _510  and  _513
REMARK  212  A    between atoms: _513  and  _514
REMARK  213  A    between atoms: _519  and  _521
REMARK  214  A    between atoms: _521  and  _522
REMARK  215  A    between atoms: _521  and  _524
REMARK  216  A    between atoms: _524  and  _525
REMARK  217  A    between atoms: _528  and  _530
REMARK  218  A    between atoms: _530  and  _531
REMARK  219  A    between atoms: _530  and  _533
REMARK  220  A    between atoms: _533  and  _534
REMARK  221  A    between atoms: _537  and  _539
REMARK  222  A    between atoms: _539  and  _540
REMARK  223  A    between atoms: _542  and  _544
REMARK  224  A    between atoms: _544  and  _545
REMARK  225  A    between atoms: _544  and  _547
REMARK  226  A    between atoms: _547  and  _548
REMARK  227  A    between atoms: _548  and  _549
REMARK  228  A    between atoms: _549  and  _550
REMARK                            x       y       z     vdW  Elec       q    Type
REMARK                         _______ _______ _______ _____ _____    ______ ____
ROOT
ATOM      1  O   HOH     1      25.021   5.422  22.288  0.00  0.00    +0.000 OA
ENDROOT
TORSDOF 0
REMARK  Name = ../refined-set-2016/3ekw/3ekw_pocket.pdb
REMARK  228 active torsions:
REMARK  status: ('A' for Active; 'I' for Inactive)
REMARK    1  A    between atoms: _1  and  _3
REMARK    2  A    between atoms: _3  and  _4
REMARK    3  A    between atoms: _3  and  _6
REMARK    4  A    between atoms: _6  and  _7
REMARK    5  A    between atoms: _7  and  _8
REMARK    6  A    between atoms: _8  and  _9
REMARK    7  A    between atoms: _18  and  _20
REMARK    8  A    between atoms: _20  and  _21
REMARK    9  A    between atoms: _20  and  _23
REMARK   10  A    between atoms: _23  and  _24
REMARK   11  A    between atoms: _27  and  _29
REMARK   12  A    between atoms: _29  and  _30
REMARK   13  A    between atoms: _29  and  _32
REMARK   14  A    between atoms: _32  and  _33
REMARK   15  A    between atoms: _36  and  _38
REMARK   16  A    between atoms: _38  and  _39
REMARK   17  A    between atoms: _38  and  _41
REMARK   18  A    between atoms: _41  and  _42
REMARK   19  A    between atoms: _45  and  _47
REMARK   20  A    between atoms: _47  and  _48
REMARK   21  A    between atoms: _47  and  _50
REMARK   22  A    between atoms: _50  and  _51
REMARK   23  A    between atoms: _54  and  _56
REMARK   24  A    between atoms: _56  and  _57
REMARK   25  A    between atoms: _59  and  _61
REMARK   26  A    between atoms: _61  and  _62
REMARK   27  A    between atoms: _65  and  _67
REMARK   28  A    between atoms: _67  and  _68
REMARK   29  A    between atoms: _67  and  _70
REMARK   30  A    between atoms: _70  and  _71
REMARK   31  A    between atoms: _74  and  _76
REMARK   32  A    between atoms: _76  and  _77
REMARK   33  A    between atoms: _76  and  _79
REMARK   34  A    between atoms: _79  and  _80
REMARK   35  A    between atoms: _83  and  _85
REMARK   36  A    between atoms: _85  and  _86
REMARK   37  A    between atoms: _85  and  _88
REMARK   38  A    between atoms: _88  and  _89
REMARK   39  A    between atoms: _92  and  _94
REMARK   40  A    between atoms: _94  and  _95
REMARK   41  A    between atoms: _94  and  _97
REMARK   42  A    between atoms: _100  and  _102
REMARK   43  A    between atoms: _102  and  _103
REMARK   44  A    between atoms: _102  and  _105
REMARK   45  A    between atoms: _105  and  _106
REMARK   46  A    between atoms: _106  and  _107
REMARK   47  A    between atoms: _107  and  _108
REMARK   48  A    between atoms: _108  and  _109
REMARK   49  A    between atoms: _113  and  _115
REMARK   50  A    between atoms: _115  and  _116
REMARK   51  A    between atoms: _115  and  _118
REMARK   52  A    between atoms: _118  and  _119
REMARK   53  A    between atoms: _119  and  _120
REMARK   54  A    between atoms: _122  and  _124
REMARK   55  A    between atoms: _124  and  _125
REMARK   56  A    between atoms: _124  and  _127
REMARK   57  A    between atoms: _127  and  _128
REMARK   58  A    between atoms: _131  and  _133
REMARK   59  A    between atoms: _133  and  _134
REMARK   60  A    between atoms: _133  and  _136
REMARK   61  A    between atoms: _139  and  _141
REMARK   62  A    between atoms: _141  and  _142
REMARK   63  A    between atoms: _144  and  _146
REMARK   64  A    between atoms: _146  and  _147
REMARK   65  A    between atoms: _146  and  _149
REMARK   66  A    between atoms: _149  and  _150
REMARK   67  A    between atoms: _153  and  _155
REMARK   68  A    between atoms: _155  and  _156
REMARK   69  A    between atoms: _158  and  _160
REMARK   70  A    between atoms: _160  and  _161
REMARK   71  A    between atoms: _163  and  _165
REMARK   72  A    between atoms: _165  and  _166
REMARK   73  A    between atoms: _165  and  _168
REMARK   74  A    between atoms: _171  and  _173
REMARK   75  A    between atoms: _173  and  _174
REMARK   76  A    between atoms: _173  and  _176
REMARK   77  A    between atoms: _179  and  _181
REMARK   78  A    between atoms: _181  and  _182
REMARK   79  A    between atoms: _181  and  _184
REMARK   80  A    between atoms: _184  and  _185
REMARK   81  A    between atoms: _188  and  _190
REMARK   82  A    between atoms: _190  and  _191
REMARK   83  A    between atoms: _190  and  _193
REMARK   84  A    between atoms: _193  and  _194
REMARK   85  A    between atoms: _198  and  _199
REMARK   86  A    between atoms: _204  and  _206
REMARK   87  A    between atoms: _206  and  _207
REMARK   88  A    between atoms: _210  and  _212
REMARK   89  A    between atoms: _212  and  _213
REMARK   90  A    between atoms: _212  and  _215
REMARK   91  A    between atoms: _215  and  _216
REMARK   92  A    between atoms: _221  and  _223
REMARK   93  A    between atoms: _223  and  _224
REMARK   94  A    between atoms: _223  and  _226
REMARK   95  A    between atoms: _226  and  _227
REMARK   96  A    between atoms: _230  and  _232
REMARK   97  A    between atoms: _232  and  _233
REMARK   98  A    between atoms: _232  and  _235
REMARK   99  A    between atoms: _235  and  _236
REMARK  100  A    between atoms: _239  and  _241
REMARK  101  A    between atoms: _241  and  _242
REMARK  102  A    between atoms: _244  and  _246
REMARK  103  A    between atoms: _246  and  _247
REMARK  104  A    between atoms: _246  and  _249
REMARK  105  A    between atoms: _249  and  _250
REMARK  106  A    between atoms: _250  and  _251
REMARK  107  A    between atoms: _251  and  _252
REMARK  108  A    between atoms: _261  and  _263
REMARK  109  A    between atoms: _263  and  _264
REMARK  110  A    between atoms: _263  and  _266
REMARK  111  A    between atoms: _266  and  _267
REMARK  112  A    between atoms: _267  and  _268
REMARK  113  A    between atoms: _268  and  _269
REMARK  114  A    between atoms: _278  and  _280
REMARK  115  A    between atoms: _280  and  _281
REMARK  116  A    between atoms: _280  and  _283
REMARK  117  A    between atoms: _283  and  _284
REMARK  118  A    between atoms: _287  and  _289
REMARK  119  A    between atoms: _289  and  _290
REMARK  120  A    between atoms: _289  and  _292
REMARK  121  A    between atoms: _292  and  _293
REMARK  122  A    between atoms: _296  and  _298
REMARK  123  A    between atoms: _298  and  _299
REMARK  124  A    between atoms: _298  and  _301
REMARK  125  A    between atoms: _301  and  _302
REMARK  126  A    between atoms: _305  and  _307
REMARK  127  A    between atoms: _307  and  _308
REMARK  128  A    between atoms: _307  and  _310
REMARK  129  A    between atoms: _310  and  _311
REMARK  130  A    between atoms: _314  and  _316
REMARK  131  A    between atoms: _316  and  _317
REMARK  132  A    between atoms: _316  and  _319
REMARK  133  A    between atoms: _319  and  _320
REMARK  134  A    between atoms: _323  and  _325
REMARK  135  A    between atoms: _325  and  _326
REMARK  136  A    between atoms: _328  and  _330
REMARK  137  A    between atoms: _330  and  _331
REMARK  138  A    between atoms: _334  and  _336
REMARK  139  A    between atoms: _336  and  _337
REMARK  140  A    between atoms: _336  and  _339
REMARK  141  A    between atoms: _339  and  _340
REMARK  142  A    between atoms: _343  and  _345
REMARK  143  A    between atoms: _345  and  _346
REMARK  144  A    between atoms: _345  and  _348
REMARK  145  A    between atoms: _348  and  _349
REMARK  146  A    between atoms: _352  and  _354
REMARK  147  A    between atoms: _354  and  _355
REMARK  148  A    between atoms: _354  and  _357
REMARK  149  A    between atoms: _357  and  _358
REMARK  150  A    between atoms: _361  and  _363
REMARK  151  A    between atoms: _363  and  _364
REMARK  152  A    between atoms: _363  and  _366
REMARK  153  A    between atoms: _369  and  _371
REMARK  154  A    between atoms: _371  and  _372
REMARK  155  A    between atoms: _371  and  _374
REMARK  156  A    between atoms: _374  and  _375
REMARK  157  A    between atoms: _375  and  _376
REMARK  158  A    between atoms: _379  and  _381
REMARK  159  A    between atoms: _381  and  _382
REMARK  160  A    between atoms: _381  and  _384
REMARK  161  A    between atoms: _384  and  _385
REMARK  162  A    between atoms: _385  and  _386
REMARK  163  A    between atoms: _386  and  _387
REMARK  164  A    between atoms: _387  and  _388
REMARK  165  A    between atoms: _392  and  _394
REMARK  166  A    between atoms: _394  and  _395
REMARK  167  A    between atoms: _394  and  _397
REMARK  168  A    between atoms: _397  and  _398
REMARK  169  A    between atoms: _398  and  _399
REMARK  170  A    between atoms: _401  and  _403
REMARK  171  A    between atoms: _403  and  _404
REMARK  172  A    between atoms: _403  and  _406
REMARK  173  A    between atoms: _406  and  _407
REMARK  174  A    between atoms: _410  and  _412
REMARK  175  A    between atoms: _412  and  _413
REMARK  176  A    between atoms: _412  and  _415
REMARK  177  A    between atoms: _418  and  _420
REMARK  178  A    between atoms: _420  and  _421
REMARK  179  A    between atoms: _423  and  _425
REMARK  180  A    between atoms: _425  and  _426
REMARK  181  A    between atoms: _425  and  _428
REMARK  182  A    between atoms: _428  and  _429
REMARK  183  A    between atoms: _432  and  _434
REMARK  184  A    between atoms: _434  and  _435
REMARK  185  A    between atoms: _437  and  _439
REMARK  186  A    between atoms: _439  and  _440
REMARK  187  A    between atoms: _442  and  _444
REMARK  188  A    between atoms: _444  and  _445
REMARK  189  A    between atoms: _444  and  _447
REMARK  190  A    between atoms: _447  and  _448
REMARK  191  A    between atoms: _454  and  _456
REMARK  192  A    between atoms: _456  and  _457
REMARK  193  A    between atoms: _456  and  _459
REMARK  194  A    between atoms: _462  and  _464
REMARK  195  A    between atoms: _464  and  _465
REMARK  196  A    between atoms: _464  and  _467
REMARK  197  A    between atoms: _470  and  _472
REMARK  198  A    between atoms: _472  and  _473
REMARK  199  A    between atoms: _472  and  _475
REMARK  200  A    between atoms: _475  and  _476
REMARK  201  A    between atoms: _480  and  _481
REMARK  202  A    between atoms: _486  and  _488
REMARK  203  A    between atoms: _488  and  _489
REMARK  204  A    between atoms: _488  and  _491
REMARK  205  A    between atoms: _491  and  _492
REMARK  206  A    between atoms: _496  and  _497
REMARK  207  A    between atoms: _502  and  _504
REMARK  208  A    between atoms: _504  and  _505
REMARK  209  A    between atoms: _508  and  _510
REMARK  210  A    between atoms: _510  and  _511
REMARK  211  A    between atoms: _510  and  _513
REMARK  212  A    between atoms: _513  and  _514
REMARK  213  A    between atoms: _519  and  _521
REMARK  214  A    between atoms: _521  and  _522
REMARK  215  A    between atoms: _521  and  _524
REMARK  216  A    between atoms: _524  and  _525
REMARK  217  A    between atoms: _528  and  _530
REMARK  218  A    between atoms: _530  and  _531
REMARK  219  A    between atoms: _530  and  _533
REMARK  220  A    between atoms: _533  and  _534
REMARK  221  A    between atoms: _537  and  _539
REMARK  222  A    between atoms: _539  and  _540
REMARK  223  A    between atoms: _542  and  _544
REMARK  224  A    between atoms: _544  and  _545
REMARK  225  A    between atoms: _544  and  _547
REMARK  226  A    between atoms: _547  and  _548
REMARK  227  A    between atoms: _548  and  _549
REMARK  228  A    between atoms: _549  and  _550
REMARK                            x       y       z     vdW  Elec       q    Type
REMARK                         _______ _______ _______ _____ _____    ______ ____
ROOT
ATOM      1  O   HOH     1      25.230  -6.791  10.161  0.00  0.00    +0.000 OA
ENDROOT
TORSDOF 0
REMARK  Name = ../refined-set-2016/3ekw/3ekw_pocket.pdb
REMARK  228 active torsions:
REMARK  status: ('A' for Active; 'I' for Inactive)
REMARK    1  A    between atoms: _1  and  _3
REMARK    2  A    between atoms: _3  and  _4
REMARK    3  A    between atoms: _3  and  _6
REMARK    4  A    between atoms: _6  and  _7
REMARK    5  A    between atoms: _7  and  _8
REMARK    6  A    between atoms: _8  and  _9
REMARK    7  A    between atoms: _18  and  _20
REMARK    8  A    between atoms: _20  and  _21
REMARK    9  A    between atoms: _20  and  _23
REMARK   10  A    between atoms: _23  and  _24
REMARK   11  A    between atoms: _27  and  _29
REMARK   12  A    between atoms: _29  and  _30
REMARK   13  A    between atoms: _29  and  _32
REMARK   14  A    between atoms: _32  and  _33
REMARK   15  A    between atoms: _36  and  _38
REMARK   16  A    between atoms: _38  and  _39
REMARK   17  A    between atoms: _38  and  _41
REMARK   18  A    between atoms: _41  and  _42
REMARK   19  A    between atoms: _45  and  _47
REMARK   20  A    between atoms: _47  and  _48
REMARK   21  A    between atoms: _47  and  _50
REMARK   22  A    between atoms: _50  and  _51
REMARK   23  A    between atoms: _54  and  _56
REMARK   24  A    between atoms: _56  and  _57
REMARK   25  A    between atoms: _59  and  _61
REMARK   26  A    between atoms: _61  and  _62
REMARK   27  A    between atoms: _65  and  _67
REMARK   28  A    between atoms: _67  and  _68
REMARK   29  A    between atoms: _67  and  _70
REMARK   30  A    between atoms: _70  and  _71
REMARK   31  A    between atoms: _74  and  _76
REMARK   32  A    between atoms: _76  and  _77
REMARK   33  A    between atoms: _76  and  _79
REMARK   34  A    between atoms: _79  and  _80
REMARK   35  A    between atoms: _83  and  _85
REMARK   36  A    between atoms: _85  and  _86
REMARK   37  A    between atoms: _85  and  _88
REMARK   38  A    between atoms: _88  and  _89
REMARK   39  A    between atoms: _92  and  _94
REMARK   40  A    between atoms: _94  and  _95
REMARK   41  A    between atoms: _94  and  _97
REMARK   42  A    between atoms: _100  and  _102
REMARK   43  A    between atoms: _102  and  _103
REMARK   44  A    between atoms: _102  and  _105
REMARK   45  A    between atoms: _105  and  _106
REMARK   46  A    between atoms: _106  and  _107
REMARK   47  A    between atoms: _107  and  _108
REMARK   48  A    between atoms: _108  and  _109
REMARK   49  A    between atoms: _113  and  _115
REMARK   50  A    between atoms: _115  and  _116
REMARK   51  A    between atoms: _115  and  _118
REMARK   52  A    between atoms: _118  and  _119
REMARK   53  A    between atoms: _119  and  _120
REMARK   54  A    between atoms: _122  and  _124
REMARK   55  A    between atoms: _124  and  _125
REMARK   56  A    between atoms: _124  and  _127
REMARK   57  A    between atoms: _127  and  _128
REMARK   58  A    between atoms: _131  and  _133
REMARK   59  A    between atoms: _133  and  _134
REMARK   60  A    between atoms: _133  and  _136
REMARK   61  A    between atoms: _139  and  _141
REMARK   62  A    between atoms: _141  and  _142
REMARK   63  A    between atoms: _144  and  _146
REMARK   64  A    between atoms: _146  and  _147
REMARK   65  A    between atoms: _146  and  _149
REMARK   66  A    between atoms: _149  and  _150
REMARK   67  A    between atoms: _153  and  _155
REMARK   68  A    between atoms: _155  and  _156
REMARK   69  A    between atoms: _158  and  _160
REMARK   70  A    between atoms: _160  and  _161
REMARK   71  A    between atoms: _163  and  _165
REMARK   72  A    between atoms: _165  and  _166
REMARK   73  A    between atoms: _165  and  _168
REMARK   74  A    between atoms: _171  and  _173
REMARK   75  A    between atoms: _173  and  _174
REMARK   76  A    between atoms: _173  and  _176
REMARK   77  A    between atoms: _179  and  _181
REMARK   78  A    between atoms: _181  and  _182
REMARK   79  A    between atoms: _181  and  _184
REMARK   80  A    between atoms: _184  and  _185
REMARK   81  A    between atoms: _188  and  _190
REMARK   82  A    between atoms: _190  and  _191
REMARK   83  A    between atoms: _190  and  _193
REMARK   84  A    between atoms: _193  and  _194
REMARK   85  A    between atoms: _198  and  _199
REMARK   86  A    between atoms: _204  and  _206
REMARK   87  A    between atoms: _206  and  _207
REMARK   88  A    between atoms: _210  and  _212
REMARK   89  A    between atoms: _212  and  _213
REMARK   90  A    between atoms: _212  and  _215
REMARK   91  A    between atoms: _215  and  _216
REMARK   92  A    between atoms: _221  and  _223
REMARK   93  A    between atoms: _223  and  _224
REMARK   94  A    between atoms: _223  and  _226
REMARK   95  A    between atoms: _226  and  _227
REMARK   96  A    between atoms: _230  and  _232
REMARK   97  A    between atoms: _232  and  _233
REMARK   98  A    between atoms: _232  and  _235
REMARK   99  A    between atoms: _235  and  _236
REMARK  100  A    between atoms: _239  and  _241
REMARK  101  A    between atoms: _241  and  _242
REMARK  102  A    between atoms: _244  and  _246
REMARK  103  A    between atoms: _246  and  _247
REMARK  104  A    between atoms: _246  and  _249
REMARK  105  A    between atoms: _249  and  _250
REMARK  106  A    between atoms: _250  and  _251
REMARK  107  A    between atoms: _251  and  _252
REMARK  108  A    between atoms: _261  and  _263
REMARK  109  A    between atoms: _263  and  _264
REMARK  110  A    between atoms: _263  and  _266
REMARK  111  A    between atoms: _266  and  _267
REMARK  112  A    between atoms: _267  and  _268
REMARK  113  A    between atoms: _268  and  _269
REMARK  114  A    between atoms: _278  and  _280
REMARK  115  A    between atoms: _280  and  _281
REMARK  116  A    between atoms: _280  and  _283
REMARK  117  A    between atoms: _283  and  _284
REMARK  118  A    between atoms: _287  and  _289
REMARK  119  A    between atoms: _289  and  _290
REMARK  120  A    between atoms: _289  and  _292
REMARK  121  A    between atoms: _292  and  _293
REMARK  122  A    between atoms: _296  and  _298
REMARK  123  A    between atoms: _298  and  _299
REMARK  124  A    between atoms: _298  and  _301
REMARK  125  A    between atoms: _301  and  _302
REMARK  126  A    between atoms: _305  and  _307
REMARK  127  A    between atoms: _307  and  _308
REMARK  128  A    between atoms: _307  and  _310
REMARK  129  A    between atoms: _310  and  _311
REMARK  130  A    between atoms: _314  and  _316
REMARK  131  A    between atoms: _316  and  _317
REMARK  132  A    between atoms: _316  and  _319
REMARK  133  A    between atoms: _319  and  _320
REMARK  134  A    between atoms: _323  and  _325
REMARK  135  A    between atoms: _325  and  _326
REMARK  136  A    between atoms: _328  and  _330
REMARK  137  A    between atoms: _330  and  _331
REMARK  138  A    between atoms: _334  and  _336
REMARK  139  A    between atoms: _336  and  _337
REMARK  140  A    between atoms: _336  and  _339
REMARK  141  A    between atoms: _339  and  _340
REMARK  142  A    between atoms: _343  and  _345
REMARK  143  A    between atoms: _345  and  _346
REMARK  144  A    between atoms: _345  and  _348
REMARK  145  A    between atoms: _348  and  _349
REMARK  146  A    between atoms: _352  and  _354
REMARK  147  A    between atoms: _354  and  _355
REMARK  148  A    between atoms: _354  and  _357
REMARK  149  A    between atoms: _357  and  _358
REMARK  150  A    between atoms: _361  and  _363
REMARK  151  A    between atoms: _363  and  _364
REMARK  152  A    between atoms: _363  and  _366
REMARK  153  A    between atoms: _369  and  _371
REMARK  154  A    between atoms: _371  and  _372
REMARK  155  A    between atoms: _371  and  _374
REMARK  156  A    between atoms: _374  and  _375
REMARK  157  A    between atoms: _375  and  _376
REMARK  158  A    between atoms: _379  and  _381
REMARK  159  A    between atoms: _381  and  _382
REMARK  160  A    between atoms: _381  and  _384
REMARK  161  A    between atoms: _384  and  _385
REMARK  162  A    between atoms: _385  and  _386
REMARK  163  A    between atoms: _386  and  _387
REMARK  164  A    between atoms: _387  and  _388
REMARK  165  A    between atoms: _392  and  _394
REMARK  166  A    between atoms: _394  and  _395
REMARK  167  A    between atoms: _394  and  _397
REMARK  168  A    between atoms: _397  and  _398
REMARK  169  A    between atoms: _398  and  _399
REMARK  170  A    between atoms: _401  and  _403
REMARK  171  A    between atoms: _403  and  _404
REMARK  172  A    between atoms: _403  and  _406
REMARK  173  A    between atoms: _406  and  _407
REMARK  174  A    between atoms: _410  and  _412
REMARK  175  A    between atoms: _412  and  _413
REMARK  176  A    between atoms: _412  and  _415
REMARK  177  A    between atoms: _418  and  _420
REMARK  178  A    between atoms: _420  and  _421
REMARK  179  A    between atoms: _423  and  _425
REMARK  180  A    between atoms: _425  and  _426
REMARK  181  A    between atoms: _425  and  _428
REMARK  182  A    between atoms: _428  and  _429
REMARK  183  A    between atoms: _432  and  _434
REMARK  184  A    between atoms: _434  and  _435
REMARK  185  A    between atoms: _437  and  _439
REMARK  186  A    between atoms: _439  and  _440
REMARK  187  A    between atoms: _442  and  _444
REMARK  188  A    between atoms: _444  and  _445
REMARK  189  A    between atoms: _444  and  _447
REMARK  190  A    between atoms: _447  and  _448
REMARK  191  A    between atoms: _454  and  _456
REMARK  192  A    between atoms: _456  and  _457
REMARK  193  A    between atoms: _456  and  _459
REMARK  194  A    between atoms: _462  and  _464
REMARK  195  A    between atoms: _464  and  _465
REMARK  196  A    between atoms: _464  and  _467
REMARK  197  A    between atoms: _470  and  _472
REMARK  198  A    between atoms: _472  and  _473
REMARK  199  A    between atoms: _472  and  _475
REMARK  200  A    between atoms: _475  and  _476
REMARK  201  A    between atoms: _480  and  _481
REMARK  202  A    between atoms: _486  and  _488
REMARK  203  A    between atoms: _488  and  _489
REMARK  204  A    between atoms: _488  and  _491
REMARK  205  A    between atoms: _491  and  _492
REMARK  206  A    between atoms: _496  and  _497
REMARK  207  A    between atoms: _502  and  _504
REMARK  208  A    between atoms: _504  and  _505
REMARK  209  A    between atoms: _508  and  _510
REMARK  210  A    between atoms: _510  and  _511
REMARK  211  A    between atoms: _510  and  _513
REMARK  212  A    between atoms: _513  and  _514
REMARK  213  A    between atoms: _519  and  _521
REMARK  214  A    between atoms: _521  and  _522
REMARK  215  A    between atoms: _521  and  _524
REMARK  216  A    between atoms: _524  and  _525
REMARK  217  A    between atoms: _528  and  _530
REMARK  218  A    between atoms: _530  and  _531
REMARK  219  A    between atoms: _530  and  _533
REMARK  220  A    between atoms: _533  and  _534
REMARK  221  A    between atoms: _537  and  _539
REMARK  222  A    between atoms: _539  and  _540
REMARK  223  A    between atoms: _542  and  _544
REMARK  224  A    between atoms: _544  and  _545
REMARK  225  A    between atoms: _544  and  _547
REMARK  226  A    between atoms: _547  and  _548
REMARK  227  A    between atoms: _548  and  _549
REMARK  228  A    between atoms: _549  and  _550
REMARK                            x       y       z     vdW  Elec       q    Type
REMARK                         _______ _______ _______ _____ _____    ______ ____
ROOT
ATOM      1  O   HOH     1      24.709   8.079  23.016  0.00  0.00    +0.000 OA
ENDROOT
TORSDOF 0
REMARK  Name = ../refined-set-2016/3ekw/3ekw_pocket.pdb
REMARK  228 active torsions:
REMARK  status: ('A' for Active; 'I' for Inactive)
REMARK    1  A    between atoms: _1  and  _3
REMARK    2  A    between atoms: _3  and  _4
REMARK    3  A    between atoms: _3  and  _6
REMARK    4  A    between atoms: _6  and  _7
REMARK    5  A    between atoms: _7  and  _8
REMARK    6  A    between atoms: _8  and  _9
REMARK    7  A    between atoms: _18  and  _20
REMARK    8  A    between atoms: _20  and  _21
REMARK    9  A    between atoms: _20  and  _23
REMARK   10  A    between atoms: _23  and  _24
REMARK   11  A    between atoms: _27  and  _29
REMARK   12  A    between atoms: _29  and  _30
REMARK   13  A    between atoms: _29  and  _32
REMARK   14  A    between atoms: _32  and  _33
REMARK   15  A    between atoms: _36  and  _38
REMARK   16  A    between atoms: _38  and  _39
REMARK   17  A    between atoms: _38  and  _41
REMARK   18  A    between atoms: _41  and  _42
REMARK   19  A    between atoms: _45  and  _47
REMARK   20  A    between atoms: _47  and  _48
REMARK   21  A    between atoms: _47  and  _50
REMARK   22  A    between atoms: _50  and  _51
REMARK   23  A    between atoms: _54  and  _56
REMARK   24  A    between atoms: _56  and  _57
REMARK   25  A    between atoms: _59  and  _61
REMARK   26  A    between atoms: _61  and  _62
REMARK   27  A    between atoms: _65  and  _67
REMARK   28  A    between atoms: _67  and  _68
REMARK   29  A    between atoms: _67  and  _70
REMARK   30  A    between atoms: _70  and  _71
REMARK   31  A    between atoms: _74  and  _76
REMARK   32  A    between atoms: _76  and  _77
REMARK   33  A    between atoms: _76  and  _79
REMARK   34  A    between atoms: _79  and  _80
REMARK   35  A    between atoms: _83  and  _85
REMARK   36  A    between atoms: _85  and  _86
REMARK   37  A    between atoms: _85  and  _88
REMARK   38  A    between atoms: _88  and  _89
REMARK   39  A    between atoms: _92  and  _94
REMARK   40  A    between atoms: _94  and  _95
REMARK   41  A    between atoms: _94  and  _97
REMARK   42  A    between atoms: _100  and  _102
REMARK   43  A    between atoms: _102  and  _103
REMARK   44  A    between atoms: _102  and  _105
REMARK   45  A    between atoms: _105  and  _106
REMARK   46  A    between atoms: _106  and  _107
REMARK   47  A    between atoms: _107  and  _108
REMARK   48  A    between atoms: _108  and  _109
REMARK   49  A    between atoms: _113  and  _115
REMARK   50  A    between atoms: _115  and  _116
REMARK   51  A    between atoms: _115  and  _118
REMARK   52  A    between atoms: _118  and  _119
REMARK   53  A    between atoms: _119  and  _120
REMARK   54  A    between atoms: _122  and  _124
REMARK   55  A    between atoms: _124  and  _125
REMARK   56  A    between atoms: _124  and  _127
REMARK   57  A    between atoms: _127  and  _128
REMARK   58  A    between atoms: _131  and  _133
REMARK   59  A    between atoms: _133  and  _134
REMARK   60  A    between atoms: _133  and  _136
REMARK   61  A    between atoms: _139  and  _141
REMARK   62  A    between atoms: _141  and  _142
REMARK   63  A    between atoms: _144  and  _146
REMARK   64  A    between atoms: _146  and  _147
REMARK   65  A    between atoms: _146  and  _149
REMARK   66  A    between atoms: _149  and  _150
REMARK   67  A    between atoms: _153  and  _155
REMARK   68  A    between atoms: _155  and  _156
REMARK   69  A    between atoms: _158  and  _160
REMARK   70  A    between atoms: _160  and  _161
REMARK   71  A    between atoms: _163  and  _165
REMARK   72  A    between atoms: _165  and  _166
REMARK   73  A    between atoms: _165  and  _168
REMARK   74  A    between atoms: _171  and  _173
REMARK   75  A    between atoms: _173  and  _174
REMARK   76  A    between atoms: _173  and  _176
REMARK   77  A    between atoms: _179  and  _181
REMARK   78  A    between atoms: _181  and  _182
REMARK   79  A    between atoms: _181  and  _184
REMARK   80  A    between atoms: _184  and  _185
REMARK   81  A    between atoms: _188  and  _190
REMARK   82  A    between atoms: _190  and  _191
REMARK   83  A    between atoms: _190  and  _193
REMARK   84  A    between atoms: _193  and  _194
REMARK   85  A    between atoms: _198  and  _199
REMARK   86  A    between atoms: _204  and  _206
REMARK   87  A    between atoms: _206  and  _207
REMARK   88  A    between atoms: _210  and  _212
REMARK   89  A    between atoms: _212  and  _213
REMARK   90  A    between atoms: _212  and  _215
REMARK   91  A    between atoms: _215  and  _216
REMARK   92  A    between atoms: _221  and  _223
REMARK   93  A    between atoms: _223  and  _224
REMARK   94  A    between atoms: _223  and  _226
REMARK   95  A    between atoms: _226  and  _227
REMARK   96  A    between atoms: _230  and  _232
REMARK   97  A    between atoms: _232  and  _233
REMARK   98  A    between atoms: _232  and  _235
REMARK   99  A    between atoms: _235  and  _236
REMARK  100  A    between atoms: _239  and  _241
REMARK  101  A    between atoms: _241  and  _242
REMARK  102  A    between atoms: _244  and  _246
REMARK  103  A    between atoms: _246  and  _247
REMARK  104  A    between atoms: _246  and  _249
REMARK  105  A    between atoms: _249  and  _250
REMARK  106  A    between atoms: _250  and  _251
REMARK  107  A    between atoms: _251  and  _252
REMARK  108  A    between atoms: _261  and  _263
REMARK  109  A    between atoms: _263  and  _264
REMARK  110  A    between atoms: _263  and  _266
REMARK  111  A    between atoms: _266  and  _267
REMARK  112  A    between atoms: _267  and  _268
REMARK  113  A    between atoms: _268  and  _269
REMARK  114  A    between atoms: _278  and  _280
REMARK  115  A    between atoms: _280  and  _281
REMARK  116  A    between atoms: _280  and  _283
REMARK  117  A    between atoms: _283  and  _284
REMARK  118  A    between atoms: _287  and  _289
REMARK  119  A    between atoms: _289  and  _290
REMARK  120  A    between atoms: _289  and  _292
REMARK  121  A    between atoms: _292  and  _293
REMARK  122  A    between atoms: _296  and  _298
REMARK  123  A    between atoms: _298  and  _299
REMARK  124  A    between atoms: _298  and  _301
REMARK  125  A    between atoms: _301  and  _302
REMARK  126  A    between atoms: _305  and  _307
REMARK  127  A    between atoms: _307  and  _308
REMARK  128  A    between atoms: _307  and  _310
REMARK  129  A    between atoms: _310  and  _311
REMARK  130  A    between atoms: _314  and  _316
REMARK  131  A    between atoms: _316  and  _317
REMARK  132  A    between atoms: _316  and  _319
REMARK  133  A    between atoms: _319  and  _320
REMARK  134  A    between atoms: _323  and  _325
REMARK  135  A    between atoms: _325  and  _326
REMARK  136  A    between atoms: _328  and  _330
REMARK  137  A    between atoms: _330  and  _331
REMARK  138  A    between atoms: _334  and  _336
REMARK  139  A    between atoms: _336  and  _337
REMARK  140  A    between atoms: _336  and  _339
REMARK  141  A    between atoms: _339  and  _340
REMARK  142  A    between atoms: _343  and  _345
REMARK  143  A    between atoms: _345  and  _346
REMARK  144  A    between atoms: _345  and  _348
REMARK  145  A    between atoms: _348  and  _349
REMARK  146  A    between atoms: _352  and  _354
REMARK  147  A    between atoms: _354  and  _355
REMARK  148  A    between atoms: _354  and  _357
REMARK  149  A    between atoms: _357  and  _358
REMARK  150  A    between atoms: _361  and  _363
REMARK  151  A    between atoms: _363  and  _364
REMARK  152  A    between atoms: _363  and  _366
REMARK  153  A    between atoms: _369  and  _371
REMARK  154  A    between atoms: _371  and  _372
REMARK  155  A    between atoms: _371  and  _374
REMARK  156  A    between atoms: _374  and  _375
REMARK  157  A    between atoms: _375  and  _376
REMARK  158  A    between atoms: _379  and  _381
REMARK  159  A    between atoms: _381  and  _382
REMARK  160  A    between atoms: _381  and  _384
REMARK  161  A    between atoms: _384  and  _385
REMARK  162  A    between atoms: _385  and  _386
REMARK  163  A    between atoms: _386  and  _387
REMARK  164  A    between atoms: _387  and  _388
REMARK  165  A    between atoms: _392  and  _394
REMARK  166  A    between atoms: _394  and  _395
REMARK  167  A    between atoms: _394  and  _397
REMARK  168  A    between atoms: _397  and  _398
REMARK  169  A    between atoms: _398  and  _399
REMARK  170  A    between atoms: _401  and  _403
REMARK  171  A    between atoms: _403  and  _404
REMARK  172  A    between atoms: _403  and  _406
REMARK  173  A    between atoms: _406  and  _407
REMARK  174  A    between atoms: _410  and  _412
REMARK  175  A    between atoms: _412  and  _413
REMARK  176  A    between atoms: _412  and  _415
REMARK  177  A    between atoms: _418  and  _420
REMARK  178  A    between atoms: _420  and  _421
REMARK  179  A    between atoms: _423  and  _425
REMARK  180  A    between atoms: _425  and  _426
REMARK  181  A    between atoms: _425  and  _428
REMARK  182  A    between atoms: _428  and  _429
REMARK  183  A    between atoms: _432  and  _434
REMARK  184  A    between atoms: _434  and  _435
REMARK  185  A    between atoms: _437  and  _439
REMARK  186  A    between atoms: _439  and  _440
REMARK  187  A    between atoms: _442  and  _444
REMARK  188  A    between atoms: _444  and  _445
REMARK  189  A    between atoms: _444  and  _447
REMARK  190  A    between atoms: _447  and  _448
REMARK  191  A    between atoms: _454  and  _456
REMARK  192  A    between atoms: _456  and  _457
REMARK  193  A    between atoms: _456  and  _459
REMARK  194  A    between atoms: _462  and  _464
REMARK  195  A    between atoms: _464  and  _465
REMARK  196  A    between atoms: _464  and  _467
REMARK  197  A    between atoms: _470  and  _472
REMARK  198  A    between atoms: _472  and  _473
REMARK  199  A    between atoms: _472  and  _475
REMARK  200  A    between atoms: _475  and  _476
REMARK  201  A    between atoms: _480  and  _481
REMARK  202  A    between atoms: _486  and  _488
REMARK  203  A    between atoms: _488  and  _489
REMARK  204  A    between atoms: _488  and  _491
REMARK  205  A    between atoms: _491  and  _492
REMARK  206  A    between atoms: _496  and  _497
REMARK  207  A    between atoms: _502  and  _504
REMARK  208  A    between atoms: _504  and  _505
REMARK  209  A    between atoms: _508  and  _510
REMARK  210  A    between atoms: _510  and  _511
REMARK  211  A    between atoms: _510  and  _513
REMARK  212  A    between atoms: _513  and  _514
REMARK  213  A    between atoms: _519  and  _521
REMARK  214  A    between atoms: _521  and  _522
REMARK  215  A    between atoms: _521  and  _524
REMARK  216  A    between atoms: _524  and  _525
REMARK  217  A    between atoms: _528  and  _530
REMARK  218  A    between atoms: _530  and  _531
REMARK  219  A    between atoms: _530  and  _533
REMARK  220  A    between atoms: _533  and  _534
REMARK  221  A    between atoms: _537  and  _539
REMARK  222  A    between atoms: _539  and  _540
REMARK  223  A    between atoms: _542  and  _544
REMARK  224  A    between atoms: _544  and  _545
REMARK  225  A    between atoms: _544  and  _547
REMARK  226  A    between atoms: _547  and  _548
REMARK  227  A    between atoms: _548  and  _549
REMARK  228  A    between atoms: _549  and  _550
REMARK                            x       y       z     vdW  Elec       q    Type
REMARK                         _______ _______ _______ _____ _____    ______ ____
ROOT
ATOM      1  O   HOH     1      25.132  -8.780   8.607  0.00  0.00    +0.000 OA
ENDROOT
TORSDOF 0
REMARK  Name = ../refined-set-2016/3ekw/3ekw_pocket.pdb
REMARK  228 active torsions:
REMARK  status: ('A' for Active; 'I' for Inactive)
REMARK    1  A    between atoms: _1  and  _3
REMARK    2  A    between atoms: _3  and  _4
REMARK    3  A    between atoms: _3  and  _6
REMARK    4  A    between atoms: _6  and  _7
REMARK    5  A    between atoms: _7  and  _8
REMARK    6  A    between atoms: _8  and  _9
REMARK    7  A    between atoms: _18  and  _20
REMARK    8  A    between atoms: _20  and  _21
REMARK    9  A    between atoms: _20  and  _23
REMARK   10  A    between atoms: _23  and  _24
REMARK   11  A    between atoms: _27  and  _29
REMARK   12  A    between atoms: _29  and  _30
REMARK   13  A    between atoms: _29  and  _32
REMARK   14  A    between atoms: _32  and  _33
REMARK   15  A    between atoms: _36  and  _38
REMARK   16  A    between atoms: _38  and  _39
REMARK   17  A    between atoms: _38  and  _41
REMARK   18  A    between atoms: _41  and  _42
REMARK   19  A    between atoms: _45  and  _47
REMARK   20  A    between atoms: _47  and  _48
REMARK   21  A    between atoms: _47  and  _50
REMARK   22  A    between atoms: _50  and  _51
REMARK   23  A    between atoms: _54  and  _56
REMARK   24  A    between atoms: _56  and  _57
REMARK   25  A    between atoms: _59  and  _61
REMARK   26  A    between atoms: _61  and  _62
REMARK   27  A    between atoms: _65  and  _67
REMARK   28  A    between atoms: _67  and  _68
REMARK   29  A    between atoms: _67  and  _70
REMARK   30  A    between atoms: _70  and  _71
REMARK   31  A    between atoms: _74  and  _76
REMARK   32  A    between atoms: _76  and  _77
REMARK   33  A    between atoms: _76  and  _79
REMARK   34  A    between atoms: _79  and  _80
REMARK   35  A    between atoms: _83  and  _85
REMARK   36  A    between atoms: _85  and  _86
REMARK   37  A    between atoms: _85  and  _88
REMARK   38  A    between atoms: _88  and  _89
REMARK   39  A    between atoms: _92  and  _94
REMARK   40  A    between atoms: _94  and  _95
REMARK   41  A    between atoms: _94  and  _97
REMARK   42  A    between atoms: _100  and  _102
REMARK   43  A    between atoms: _102  and  _103
REMARK   44  A    between atoms: _102  and  _105
REMARK   45  A    between atoms: _105  and  _106
REMARK   46  A    between atoms: _106  and  _107
REMARK   47  A    between atoms: _107  and  _108
REMARK   48  A    between atoms: _108  and  _109
REMARK   49  A    between atoms: _113  and  _115
REMARK   50  A    between atoms: _115  and  _116
REMARK   51  A    between atoms: _115  and  _118
REMARK   52  A    between atoms: _118  and  _119
REMARK   53  A    between atoms: _119  and  _120
REMARK   54  A    between atoms: _122  and  _124
REMARK   55  A    between atoms: _124  and  _125
REMARK   56  A    between atoms: _124  and  _127
REMARK   57  A    between atoms: _127  and  _128
REMARK   58  A    between atoms: _131  and  _133
REMARK   59  A    between atoms: _133  and  _134
REMARK   60  A    between atoms: _133  and  _136
REMARK   61  A    between atoms: _139  and  _141
REMARK   62  A    between atoms: _141  and  _142
REMARK   63  A    between atoms: _144  and  _146
REMARK   64  A    between atoms: _146  and  _147
REMARK   65  A    between atoms: _146  and  _149
REMARK   66  A    between atoms: _149  and  _150
REMARK   67  A    between atoms: _153  and  _155
REMARK   68  A    between atoms: _155  and  _156
REMARK   69  A    between atoms: _158  and  _160
REMARK   70  A    between atoms: _160  and  _161
REMARK   71  A    between atoms: _163  and  _165
REMARK   72  A    between atoms: _165  and  _166
REMARK   73  A    between atoms: _165  and  _168
REMARK   74  A    between atoms: _171  and  _173
REMARK   75  A    between atoms: _173  and  _174
REMARK   76  A    between atoms: _173  and  _176
REMARK   77  A    between atoms: _179  and  _181
REMARK   78  A    between atoms: _181  and  _182
REMARK   79  A    between atoms: _181  and  _184
REMARK   80  A    between atoms: _184  and  _185
REMARK   81  A    between atoms: _188  and  _190
REMARK   82  A    between atoms: _190  and  _191
REMARK   83  A    between atoms: _190  and  _193
REMARK   84  A    between atoms: _193  and  _194
REMARK   85  A    between atoms: _198  and  _199
REMARK   86  A    between atoms: _204  and  _206
REMARK   87  A    between atoms: _206  and  _207
REMARK   88  A    between atoms: _210  and  _212
REMARK   89  A    between atoms: _212  and  _213
REMARK   90  A    between atoms: _212  and  _215
REMARK   91  A    between atoms: _215  and  _216
REMARK   92  A    between atoms: _221  and  _223
REMARK   93  A    between atoms: _223  and  _224
REMARK   94  A    between atoms: _223  and  _226
REMARK   95  A    between atoms: _226  and  _227
REMARK   96  A    between atoms: _230  and  _232
REMARK   97  A    between atoms: _232  and  _233
REMARK   98  A    between atoms: _232  and  _235
REMARK   99  A    between atoms: _235  and  _236
REMARK  100  A    between atoms: _239  and  _241
REMARK  101  A    between atoms: _241  and  _242
REMARK  102  A    between atoms: _244  and  _246
REMARK  103  A    between atoms: _246  and  _247
REMARK  104  A    between atoms: _246  and  _249
REMARK  105  A    between atoms: _249  and  _250
REMARK  106  A    between atoms: _250  and  _251
REMARK  107  A    between atoms: _251  and  _252
REMARK  108  A    between atoms: _261  and  _263
REMARK  109  A    between atoms: _263  and  _264
REMARK  110  A    between atoms: _263  and  _266
REMARK  111  A    between atoms: _266  and  _267
REMARK  112  A    between atoms: _267  and  _268
REMARK  113  A    between atoms: _268  and  _269
REMARK  114  A    between atoms: _278  and  _280
REMARK  115  A    between atoms: _280  and  _281
REMARK  116  A    between atoms: _280  and  _283
REMARK  117  A    between atoms: _283  and  _284
REMARK  118  A    between atoms: _287  and  _289
REMARK  119  A    between atoms: _289  and  _290
REMARK  120  A    between atoms: _289  and  _292
REMARK  121  A    between atoms: _292  and  _293
REMARK  122  A    between atoms: _296  and  _298
REMARK  123  A    between atoms: _298  and  _299
REMARK  124  A    between atoms: _298  and  _301
REMARK  125  A    between atoms: _301  and  _302
REMARK  126  A    between atoms: _305  and  _307
REMARK  127  A    between atoms: _307  and  _308
REMARK  128  A    between atoms: _307  and  _310
REMARK  129  A    between atoms: _310  and  _311
REMARK  130  A    between atoms: _314  and  _316
REMARK  131  A    between atoms: _316  and  _317
REMARK  132  A    between atoms: _316  and  _319
REMARK  133  A    between atoms: _319  and  _320
REMARK  134  A    between atoms: _323  and  _325
REMARK  135  A    between atoms: _325  and  _326
REMARK  136  A    between atoms: _328  and  _330
REMARK  137  A    between atoms: _330  and  _331
REMARK  138  A    between atoms: _334  and  _336
REMARK  139  A    between atoms: _336  and  _337
REMARK  140  A    between atoms: _336  and  _339
REMARK  141  A    between atoms: _339  and  _340
REMARK  142  A    between atoms: _343  and  _345
REMARK  143  A    between atoms: _345  and  _346
REMARK  144  A    between atoms: _345  and  _348
REMARK  145  A    between atoms: _348  and  _349
REMARK  146  A    between atoms: _352  and  _354
REMARK  147  A    between atoms: _354  and  _355
REMARK  148  A    between atoms: _354  and  _357
REMARK  149  A    between atoms: _357  and  _358
REMARK  150  A    between atoms: _361  and  _363
REMARK  151  A    between atoms: _363  and  _364
REMARK  152  A    between atoms: _363  and  _366
REMARK  153  A    between atoms: _369  and  _371
REMARK  154  A    between atoms: _371  and  _372
REMARK  155  A    between atoms: _371  and  _374
REMARK  156  A    between atoms: _374  and  _375
REMARK  157  A    between atoms: _375  and  _376
REMARK  158  A    between atoms: _379  and  _381
REMARK  159  A    between atoms: _381  and  _382
REMARK  160  A    between atoms: _381  and  _384
REMARK  161  A    between atoms: _384  and  _385
REMARK  162  A    between atoms: _385  and  _386
REMARK  163  A    between atoms: _386  and  _387
REMARK  164  A    between atoms: _387  and  _388
REMARK  165  A    between atoms: _392  and  _394
REMARK  166  A    between atoms: _394  and  _395
REMARK  167  A    between atoms: _394  and  _397
REMARK  168  A    between atoms: _397  and  _398
REMARK  169  A    between atoms: _398  and  _399
REMARK  170  A    between atoms: _401  and  _403
REMARK  171  A    between atoms: _403  and  _404
REMARK  172  A    between atoms: _403  and  _406
REMARK  173  A    between atoms: _406  and  _407
REMARK  174  A    between atoms: _410  and  _412
REMARK  175  A    between atoms: _412  and  _413
REMARK  176  A    between atoms: _412  and  _415
REMARK  177  A    between atoms: _418  and  _420
REMARK  178  A    between atoms: _420  and  _421
REMARK  179  A    between atoms: _423  and  _425
REMARK  180  A    between atoms: _425  and  _426
REMARK  181  A    between atoms: _425  and  _428
REMARK  182  A    between atoms: _428  and  _429
REMARK  183  A    between atoms: _432  and  _434
REMARK  184  A    between atoms: _434  and  _435
REMARK  185  A    between atoms: _437  and  _439
REMARK  186  A    between atoms: _439  and  _440
REMARK  187  A    between atoms: _442  and  _444
REMARK  188  A    between atoms: _444  and  _445
REMARK  189  A    between atoms: _444  and  _447
REMARK  190  A    between atoms: _447  and  _448
REMARK  191  A    between atoms: _454  and  _456
REMARK  192  A    between atoms: _456  and  _457
REMARK  193  A    between atoms: _456  and  _459
REMARK  194  A    between atoms: _462  and  _464
REMARK  195  A    between atoms: _464  and  _465
REMARK  196  A    between atoms: _464  and  _467
REMARK  197  A    between atoms: _470  and  _472
REMARK  198  A    between atoms: _472  and  _473
REMARK  199  A    between atoms: _472  and  _475
REMARK  200  A    between atoms: _475  and  _476
REMARK  201  A    between atoms: _480  and  _481
REMARK  202  A    between atoms: _486  and  _488
REMARK  203  A    between atoms: _488  and  _489
REMARK  204  A    between atoms: _488  and  _491
REMARK  205  A    between atoms: _491  and  _492
REMARK  206  A    between atoms: _496  and  _497
REMARK  207  A    between atoms: _502  and  _504
REMARK  208  A    between atoms: _504  and  _505
REMARK  209  A    between atoms: _508  and  _510
REMARK  210  A    between atoms: _510  and  _511
REMARK  211  A    between atoms: _510  and  _513
REMARK  212  A    between atoms: _513  and  _514
REMARK  213  A    between atoms: _519  and  _521
REMARK  214  A    between atoms: _521  and  _522
REMARK  215  A    between atoms: _521  and  _524
REMARK  216  A    between atoms: _524  and  _525
REMARK  217  A    between atoms: _528  and  _530
REMARK  218  A    between atoms: _530  and  _531
REMARK  219  A    between atoms: _530  and  _533
REMARK  220  A    between atoms: _533  and  _534
REMARK  221  A    between atoms: _537  and  _539
REMARK  222  A    between atoms: _539  and  _540
REMARK  223  A    between atoms: _542  and  _544
REMARK  224  A    between atoms: _544  and  _545
REMARK  225  A    between atoms: _544  and  _547
REMARK  226  A    between atoms: _547  and  _548
REMARK  227  A    between atoms: _548  and  _549
REMARK  228  A    between atoms: _549  and  _550
REMARK                            x       y       z     vdW  Elec       q    Type
REMARK                         _______ _______ _______ _____ _____    ______ ____
ROOT
ATOM      1  O   HOH     1      27.232   9.173  22.003  0.00  0.00    +0.000 OA
ENDROOT
TORSDOF 0
REMARK  Name = ../refined-set-2016/3ekw/3ekw_pocket.pdb
REMARK  228 active torsions:
REMARK  status: ('A' for Active; 'I' for Inactive)
REMARK    1  A    between atoms: _1  and  _3
REMARK    2  A    between atoms: _3  and  _4
REMARK    3  A    between atoms: _3  and  _6
REMARK    4  A    between atoms: _6  and  _7
REMARK    5  A    between atoms: _7  and  _8
REMARK    6  A    between atoms: _8  and  _9
REMARK    7  A    between atoms: _18  and  _20
REMARK    8  A    between atoms: _20  and  _21
REMARK    9  A    between atoms: _20  and  _23
REMARK   10  A    between atoms: _23  and  _24
REMARK   11  A    between atoms: _27  and  _29
REMARK   12  A    between atoms: _29  and  _30
REMARK   13  A    between atoms: _29  and  _32
REMARK   14  A    between atoms: _32  and  _33
REMARK   15  A    between atoms: _36  and  _38
REMARK   16  A    between atoms: _38  and  _39
REMARK   17  A    between atoms: _38  and  _41
REMARK   18  A    between atoms: _41  and  _42
REMARK   19  A    between atoms: _45  and  _47
REMARK   20  A    between atoms: _47  and  _48
REMARK   21  A    between atoms: _47  and  _50
REMARK   22  A    between atoms: _50  and  _51
REMARK   23  A    between atoms: _54  and  _56
REMARK   24  A    between atoms: _56  and  _57
REMARK   25  A    between atoms: _59  and  _61
REMARK   26  A    between atoms: _61  and  _62
REMARK   27  A    between atoms: _65  and  _67
REMARK   28  A    between atoms: _67  and  _68
REMARK   29  A    between atoms: _67  and  _70
REMARK   30  A    between atoms: _70  and  _71
REMARK   31  A    between atoms: _74  and  _76
REMARK   32  A    between atoms: _76  and  _77
REMARK   33  A    between atoms: _76  and  _79
REMARK   34  A    between atoms: _79  and  _80
REMARK   35  A    between atoms: _83  and  _85
REMARK   36  A    between atoms: _85  and  _86
REMARK   37  A    between atoms: _85  and  _88
REMARK   38  A    between atoms: _88  and  _89
REMARK   39  A    between atoms: _92  and  _94
REMARK   40  A    between atoms: _94  and  _95
REMARK   41  A    between atoms: _94  and  _97
REMARK   42  A    between atoms: _100  and  _102
REMARK   43  A    between atoms: _102  and  _103
REMARK   44  A    between atoms: _102  and  _105
REMARK   45  A    between atoms: _105  and  _106
REMARK   46  A    between atoms: _106  and  _107
REMARK   47  A    between atoms: _107  and  _108
REMARK   48  A    between atoms: _108  and  _109
REMARK   49  A    between atoms: _113  and  _115
REMARK   50  A    between atoms: _115  and  _116
REMARK   51  A    between atoms: _115  and  _118
REMARK   52  A    between atoms: _118  and  _119
REMARK   53  A    between atoms: _119  and  _120
REMARK   54  A    between atoms: _122  and  _124
REMARK   55  A    between atoms: _124  and  _125
REMARK   56  A    between atoms: _124  and  _127
REMARK   57  A    between atoms: _127  and  _128
REMARK   58  A    between atoms: _131  and  _133
REMARK   59  A    between atoms: _133  and  _134
REMARK   60  A    between atoms: _133  and  _136
REMARK   61  A    between atoms: _139  and  _141
REMARK   62  A    between atoms: _141  and  _142
REMARK   63  A    between atoms: _144  and  _146
REMARK   64  A    between atoms: _146  and  _147
REMARK   65  A    between atoms: _146  and  _149
REMARK   66  A    between atoms: _149  and  _150
REMARK   67  A    between atoms: _153  and  _155
REMARK   68  A    between atoms: _155  and  _156
REMARK   69  A    between atoms: _158  and  _160
REMARK   70  A    between atoms: _160  and  _161
REMARK   71  A    between atoms: _163  and  _165
REMARK   72  A    between atoms: _165  and  _166
REMARK   73  A    between atoms: _165  and  _168
REMARK   74  A    between atoms: _171  and  _173
REMARK   75  A    between atoms: _173  and  _174
REMARK   76  A    between atoms: _173  and  _176
REMARK   77  A    between atoms: _179  and  _181
REMARK   78  A    between atoms: _181  and  _182
REMARK   79  A    between atoms: _181  and  _184
REMARK   80  A    between atoms: _184  and  _185
REMARK   81  A    between atoms: _188  and  _190
REMARK   82  A    between atoms: _190  and  _191
REMARK   83  A    between atoms: _190  and  _193
REMARK   84  A    between atoms: _193  and  _194
REMARK   85  A    between atoms: _198  and  _199
REMARK   86  A    between atoms: _204  and  _206
REMARK   87  A    between atoms: _206  and  _207
REMARK   88  A    between atoms: _210  and  _212
REMARK   89  A    between atoms: _212  and  _213
REMARK   90  A    between atoms: _212  and  _215
REMARK   91  A    between atoms: _215  and  _216
REMARK   92  A    between atoms: _221  and  _223
REMARK   93  A    between atoms: _223  and  _224
REMARK   94  A    between atoms: _223  and  _226
REMARK   95  A    between atoms: _226  and  _227
REMARK   96  A    between atoms: _230  and  _232
REMARK   97  A    between atoms: _232  and  _233
REMARK   98  A    between atoms: _232  and  _235
REMARK   99  A    between atoms: _235  and  _236
REMARK  100  A    between atoms: _239  and  _241
REMARK  101  A    between atoms: _241  and  _242
REMARK  102  A    between atoms: _244  and  _246
REMARK  103  A    between atoms: _246  and  _247
REMARK  104  A    between atoms: _246  and  _249
REMARK  105  A    between atoms: _249  and  _250
REMARK  106  A    between atoms: _250  and  _251
REMARK  107  A    between atoms: _251  and  _252
REMARK  108  A    between atoms: _261  and  _263
REMARK  109  A    between atoms: _263  and  _264
REMARK  110  A    between atoms: _263  and  _266
REMARK  111  A    between atoms: _266  and  _267
REMARK  112  A    between atoms: _267  and  _268
REMARK  113  A    between atoms: _268  and  _269
REMARK  114  A    between atoms: _278  and  _280
REMARK  115  A    between atoms: _280  and  _281
REMARK  116  A    between atoms: _280  and  _283
REMARK  117  A    between atoms: _283  and  _284
REMARK  118  A    between atoms: _287  and  _289
REMARK  119  A    between atoms: _289  and  _290
REMARK  120  A    between atoms: _289  and  _292
REMARK  121  A    between atoms: _292  and  _293
REMARK  122  A    between atoms: _296  and  _298
REMARK  123  A    between atoms: _298  and  _299
REMARK  124  A    between atoms: _298  and  _301
REMARK  125  A    between atoms: _301  and  _302
REMARK  126  A    between atoms: _305  and  _307
REMARK  127  A    between atoms: _307  and  _308
REMARK  128  A    between atoms: _307  and  _310
REMARK  129  A    between atoms: _310  and  _311
REMARK  130  A    between atoms: _314  and  _316
REMARK  131  A    between atoms: _316  and  _317
REMARK  132  A    between atoms: _316  and  _319
REMARK  133  A    between atoms: _319  and  _320
REMARK  134  A    between atoms: _323  and  _325
REMARK  135  A    between atoms: _325  and  _326
REMARK  136  A    between atoms: _328  and  _330
REMARK  137  A    between atoms: _330  and  _331
REMARK  138  A    between atoms: _334  and  _336
REMARK  139  A    between atoms: _336  and  _337
REMARK  140  A    between atoms: _336  and  _339
REMARK  141  A    between atoms: _339  and  _340
REMARK  142  A    between atoms: _343  and  _345
REMARK  143  A    between atoms: _345  and  _346
REMARK  144  A    between atoms: _345  and  _348
REMARK  145  A    between atoms: _348  and  _349
REMARK  146  A    between atoms: _352  and  _354
REMARK  147  A    between atoms: _354  and  _355
REMARK  148  A    between atoms: _354  and  _357
REMARK  149  A    between atoms: _357  and  _358
REMARK  150  A    between atoms: _361  and  _363
REMARK  151  A    between atoms: _363  and  _364
REMARK  152  A    between atoms: _363  and  _366
REMARK  153  A    between atoms: _369  and  _371
REMARK  154  A    between atoms: _371  and  _372
REMARK  155  A    between atoms: _371  and  _374
REMARK  156  A    between atoms: _374  and  _375
REMARK  157  A    between atoms: _375  and  _376
REMARK  158  A    between atoms: _379  and  _381
REMARK  159  A    between atoms: _381  and  _382
REMARK  160  A    between atoms: _381  and  _384
REMARK  161  A    between atoms: _384  and  _385
REMARK  162  A    between atoms: _385  and  _386
REMARK  163  A    between atoms: _386  and  _387
REMARK  164  A    between atoms: _387  and  _388
REMARK  165  A    between atoms: _392  and  _394
REMARK  166  A    between atoms: _394  and  _395
REMARK  167  A    between atoms: _394  and  _397
REMARK  168  A    between atoms: _397  and  _398
REMARK  169  A    between atoms: _398  and  _399
REMARK  170  A    between atoms: _401  and  _403
REMARK  171  A    between atoms: _403  and  _404
REMARK  172  A    between atoms: _403  and  _406
REMARK  173  A    between atoms: _406  and  _407
REMARK  174  A    between atoms: _410  and  _412
REMARK  175  A    between atoms: _412  and  _413
REMARK  176  A    between atoms: _412  and  _415
REMARK  177  A    between atoms: _418  and  _420
REMARK  178  A    between atoms: _420  and  _421
REMARK  179  A    between atoms: _423  and  _425
REMARK  180  A    between atoms: _425  and  _426
REMARK  181  A    between atoms: _425  and  _428
REMARK  182  A    between atoms: _428  and  _429
REMARK  183  A    between atoms: _432  and  _434
REMARK  184  A    between atoms: _434  and  _435
REMARK  185  A    between atoms: _437  and  _439
REMARK  186  A    between atoms: _439  and  _440
REMARK  187  A    between atoms: _442  and  _444
REMARK  188  A    between atoms: _444  and  _445
REMARK  189  A    between atoms: _444  and  _447
REMARK  190  A    between atoms: _447  and  _448
REMARK  191  A    between atoms: _454  and  _456
REMARK  192  A    between atoms: _456  and  _457
REMARK  193  A    between atoms: _456  and  _459
REMARK  194  A    between atoms: _462  and  _464
REMARK  195  A    between atoms: _464  and  _465
REMARK  196  A    between atoms: _464  and  _467
REMARK  197  A    between atoms: _470  and  _472
REMARK  198  A    between atoms: _472  and  _473
REMARK  199  A    between atoms: _472  and  _475
REMARK  200  A    between atoms: _475  and  _476
REMARK  201  A    between atoms: _480  and  _481
REMARK  202  A    between atoms: _486  and  _488
REMARK  203  A    between atoms: _488  and  _489
REMARK  204  A    between atoms: _488  and  _491
REMARK  205  A    between atoms: _491  and  _492
REMARK  206  A    between atoms: _496  and  _497
REMARK  207  A    between atoms: _502  and  _504
REMARK  208  A    between atoms: _504  and  _505
REMARK  209  A    between atoms: _508  and  _510
REMARK  210  A    between atoms: _510  and  _511
REMARK  211  A    between atoms: _510  and  _513
REMARK  212  A    between atoms: _513  and  _514
REMARK  213  A    between atoms: _519  and  _521
REMARK  214  A    between atoms: _521  and  _522
REMARK  215  A    between atoms: _521  and  _524
REMARK  216  A    between atoms: _524  and  _525
REMARK  217  A    between atoms: _528  and  _530
REMARK  218  A    between atoms: _530  and  _531
REMARK  219  A    between atoms: _530  and  _533
REMARK  220  A    between atoms: _533  and  _534
REMARK  221  A    between atoms: _537  and  _539
REMARK  222  A    between atoms: _539  and  _540
REMARK  223  A    between atoms: _542  and  _544
REMARK  224  A    between atoms: _544  and  _545
REMARK  225  A    between atoms: _544  and  _547
REMARK  226  A    between atoms: _547  and  _548
REMARK  227  A    between atoms: _548  and  _549
REMARK  228  A    between atoms: _549  and  _550
REMARK                            x       y       z     vdW  Elec       q    Type
REMARK                         _______ _______ _______ _____ _____    ______ ____
ROOT
ATOM      1  O   HOH     1      23.083  11.605  21.268  0.00  0.00    +0.000 OA
ENDROOT
TORSDOF 0
REMARK  Name = ../refined-set-2016/3ekw/3ekw_pocket.pdb
REMARK  228 active torsions:
REMARK  status: ('A' for Active; 'I' for Inactive)
REMARK    1  A    between atoms: _1  and  _3
REMARK    2  A    between atoms: _3  and  _4
REMARK    3  A    between atoms: _3  and  _6
REMARK    4  A    between atoms: _6  and  _7
REMARK    5  A    between atoms: _7  and  _8
REMARK    6  A    between atoms: _8  and  _9
REMARK    7  A    between atoms: _18  and  _20
REMARK    8  A    between atoms: _20  and  _21
REMARK    9  A    between atoms: _20  and  _23
REMARK   10  A    between atoms: _23  and  _24
REMARK   11  A    between atoms: _27  and  _29
REMARK   12  A    between atoms: _29  and  _30
REMARK   13  A    between atoms: _29  and  _32
REMARK   14  A    between atoms: _32  and  _33
REMARK   15  A    between atoms: _36  and  _38
REMARK   16  A    between atoms: _38  and  _39
REMARK   17  A    between atoms: _38  and  _41
REMARK   18  A    between atoms: _41  and  _42
REMARK   19  A    between atoms: _45  and  _47
REMARK   20  A    between atoms: _47  and  _48
REMARK   21  A    between atoms: _47  and  _50
REMARK   22  A    between atoms: _50  and  _51
REMARK   23  A    between atoms: _54  and  _56
REMARK   24  A    between atoms: _56  and  _57
REMARK   25  A    between atoms: _59  and  _61
REMARK   26  A    between atoms: _61  and  _62
REMARK   27  A    between atoms: _65  and  _67
REMARK   28  A    between atoms: _67  and  _68
REMARK   29  A    between atoms: _67  and  _70
REMARK   30  A    between atoms: _70  and  _71
REMARK   31  A    between atoms: _74  and  _76
REMARK   32  A    between atoms: _76  and  _77
REMARK   33  A    between atoms: _76  and  _79
REMARK   34  A    between atoms: _79  and  _80
REMARK   35  A    between atoms: _83  and  _85
REMARK   36  A    between atoms: _85  and  _86
REMARK   37  A    between atoms: _85  and  _88
REMARK   38  A    between atoms: _88  and  _89
REMARK   39  A    between atoms: _92  and  _94
REMARK   40  A    between atoms: _94  and  _95
REMARK   41  A    between atoms: _94  and  _97
REMARK   42  A    between atoms: _100  and  _102
REMARK   43  A    between atoms: _102  and  _103
REMARK   44  A    between atoms: _102  and  _105
REMARK   45  A    between atoms: _105  and  _106
REMARK   46  A    between atoms: _106  and  _107
REMARK   47  A    between atoms: _107  and  _108
REMARK   48  A    between atoms: _108  and  _109
REMARK   49  A    between atoms: _113  and  _115
REMARK   50  A    between atoms: _115  and  _116
REMARK   51  A    between atoms: _115  and  _118
REMARK   52  A    between atoms: _118  and  _119
REMARK   53  A    between atoms: _119  and  _120
REMARK   54  A    between atoms: _122  and  _124
REMARK   55  A    between atoms: _124  and  _125
REMARK   56  A    between atoms: _124  and  _127
REMARK   57  A    between atoms: _127  and  _128
REMARK   58  A    between atoms: _131  and  _133
REMARK   59  A    between atoms: _133  and  _134
REMARK   60  A    between atoms: _133  and  _136
REMARK   61  A    between atoms: _139  and  _141
REMARK   62  A    between atoms: _141  and  _142
REMARK   63  A    between atoms: _144  and  _146
REMARK   64  A    between atoms: _146  and  _147
REMARK   65  A    between atoms: _146  and  _149
REMARK   66  A    between atoms: _149  and  _150
REMARK   67  A    between atoms: _153  and  _155
REMARK   68  A    between atoms: _155  and  _156
REMARK   69  A    between atoms: _158  and  _160
REMARK   70  A    between atoms: _160  and  _161
REMARK   71  A    between atoms: _163  and  _165
REMARK   72  A    between atoms: _165  and  _166
REMARK   73  A    between atoms: _165  and  _168
REMARK   74  A    between atoms: _171  and  _173
REMARK   75  A    between atoms: _173  and  _174
REMARK   76  A    between atoms: _173  and  _176
REMARK   77  A    between atoms: _179  and  _181
REMARK   78  A    between atoms: _181  and  _182
REMARK   79  A    between atoms: _181  and  _184
REMARK   80  A    between atoms: _184  and  _185
REMARK   81  A    between atoms: _188  and  _190
REMARK   82  A    between atoms: _190  and  _191
REMARK   83  A    between atoms: _190  and  _193
REMARK   84  A    between atoms: _193  and  _194
REMARK   85  A    between atoms: _198  and  _199
REMARK   86  A    between atoms: _204  and  _206
REMARK   87  A    between atoms: _206  and  _207
REMARK   88  A    between atoms: _210  and  _212
REMARK   89  A    between atoms: _212  and  _213
REMARK   90  A    between atoms: _212  and  _215
REMARK   91  A    between atoms: _215  and  _216
REMARK   92  A    between atoms: _221  and  _223
REMARK   93  A    between atoms: _223  and  _224
REMARK   94  A    between atoms: _223  and  _226
REMARK   95  A    between atoms: _226  and  _227
REMARK   96  A    between atoms: _230  and  _232
REMARK   97  A    between atoms: _232  and  _233
REMARK   98  A    between atoms: _232  and  _235
REMARK   99  A    between atoms: _235  and  _236
REMARK  100  A    between atoms: _239  and  _241
REMARK  101  A    between atoms: _241  and  _242
REMARK  102  A    between atoms: _244  and  _246
REMARK  103  A    between atoms: _246  and  _247
REMARK  104  A    between atoms: _246  and  _249
REMARK  105  A    between atoms: _249  and  _250
REMARK  106  A    between atoms: _250  and  _251
REMARK  107  A    between atoms: _251  and  _252
REMARK  108  A    between atoms: _261  and  _263
REMARK  109  A    between atoms: _263  and  _264
REMARK  110  A    between atoms: _263  and  _266
REMARK  111  A    between atoms: _266  and  _267
REMARK  112  A    between atoms: _267  and  _268
REMARK  113  A    between atoms: _268  and  _269
REMARK  114  A    between atoms: _278  and  _280
REMARK  115  A    between atoms: _280  and  _281
REMARK  116  A    between atoms: _280  and  _283
REMARK  117  A    between atoms: _283  and  _284
REMARK  118  A    between atoms: _287  and  _289
REMARK  119  A    between atoms: _289  and  _290
REMARK  120  A    between atoms: _289  and  _292
REMARK  121  A    between atoms: _292  and  _293
REMARK  122  A    between atoms: _296  and  _298
REMARK  123  A    between atoms: _298  and  _299
REMARK  124  A    between atoms: _298  and  _301
REMARK  125  A    between atoms: _301  and  _302
REMARK  126  A    between atoms: _305  and  _307
REMARK  127  A    between atoms: _307  and  _308
REMARK  128  A    between atoms: _307  and  _310
REMARK  129  A    between atoms: _310  and  _311
REMARK  130  A    between atoms: _314  and  _316
REMARK  131  A    between atoms: _316  and  _317
REMARK  132  A    between atoms: _316  and  _319
REMARK  133  A    between atoms: _319  and  _320
REMARK  134  A    between atoms: _323  and  _325
REMARK  135  A    between atoms: _325  and  _326
REMARK  136  A    between atoms: _328  and  _330
REMARK  137  A    between atoms: _330  and  _331
REMARK  138  A    between atoms: _334  and  _336
REMARK  139  A    between atoms: _336  and  _337
REMARK  140  A    between atoms: _336  and  _339
REMARK  141  A    between atoms: _339  and  _340
REMARK  142  A    between atoms: _343  and  _345
REMARK  143  A    between atoms: _345  and  _346
REMARK  144  A    between atoms: _345  and  _348
REMARK  145  A    between atoms: _348  and  _349
REMARK  146  A    between atoms: _352  and  _354
REMARK  147  A    between atoms: _354  and  _355
REMARK  148  A    between atoms: _354  and  _357
REMARK  149  A    between atoms: _357  and  _358
REMARK  150  A    between atoms: _361  and  _363
REMARK  151  A    between atoms: _363  and  _364
REMARK  152  A    between atoms: _363  and  _366
REMARK  153  A    between atoms: _369  and  _371
REMARK  154  A    between atoms: _371  and  _372
REMARK  155  A    between atoms: _371  and  _374
REMARK  156  A    between atoms: _374  and  _375
REMARK  157  A    between atoms: _375  and  _376
REMARK  158  A    between atoms: _379  and  _381
REMARK  159  A    between atoms: _381  and  _382
REMARK  160  A    between atoms: _381  and  _384
REMARK  161  A    between atoms: _384  and  _385
REMARK  162  A    between atoms: _385  and  _386
REMARK  163  A    between atoms: _386  and  _387
REMARK  164  A    between atoms: _387  and  _388
REMARK  165  A    between atoms: _392  and  _394
REMARK  166  A    between atoms: _394  and  _395
REMARK  167  A    between atoms: _394  and  _397
REMARK  168  A    between atoms: _397  and  _398
REMARK  169  A    between atoms: _398  and  _399
REMARK  170  A    between atoms: _401  and  _403
REMARK  171  A    between atoms: _403  and  _404
REMARK  172  A    between atoms: _403  and  _406
REMARK  173  A    between atoms: _406  and  _407
REMARK  174  A    between atoms: _410  and  _412
REMARK  175  A    between atoms: _412  and  _413
REMARK  176  A    between atoms: _412  and  _415
REMARK  177  A    between atoms: _418  and  _420
REMARK  178  A    between atoms: _420  and  _421
REMARK  179  A    between atoms: _423  and  _425
REMARK  180  A    between atoms: _425  and  _426
REMARK  181  A    between atoms: _425  and  _428
REMARK  182  A    between atoms: _428  and  _429
REMARK  183  A    between atoms: _432  and  _434
REMARK  184  A    between atoms: _434  and  _435
REMARK  185  A    between atoms: _437  and  _439
REMARK  186  A    between atoms: _439  and  _440
REMARK  187  A    between atoms: _442  and  _444
REMARK  188  A    between atoms: _444  and  _445
REMARK  189  A    between atoms: _444  and  _447
REMARK  190  A    between atoms: _447  and  _448
REMARK  191  A    between atoms: _454  and  _456
REMARK  192  A    between atoms: _456  and  _457
REMARK  193  A    between atoms: _456  and  _459
REMARK  194  A    between atoms: _462  and  _464
REMARK  195  A    between atoms: _464  and  _465
REMARK  196  A    between atoms: _464  and  _467
REMARK  197  A    between atoms: _470  and  _472
REMARK  198  A    between atoms: _472  and  _473
REMARK  199  A    between atoms: _472  and  _475
REMARK  200  A    between atoms: _475  and  _476
REMARK  201  A    between atoms: _480  and  _481
REMARK  202  A    between atoms: _486  and  _488
REMARK  203  A    between atoms: _488  and  _489
REMARK  204  A    between atoms: _488  and  _491
REMARK  205  A    between atoms: _491  and  _492
REMARK  206  A    between atoms: _496  and  _497
REMARK  207  A    between atoms: _502  and  _504
REMARK  208  A    between atoms: _504  and  _505
REMARK  209  A    between atoms: _508  and  _510
REMARK  210  A    between atoms: _510  and  _511
REMARK  211  A    between atoms: _510  and  _513
REMARK  212  A    between atoms: _513  and  _514
REMARK  213  A    between atoms: _519  and  _521
REMARK  214  A    between atoms: _521  and  _522
REMARK  215  A    between atoms: _521  and  _524
REMARK  216  A    between atoms: _524  and  _525
REMARK  217  A    between atoms: _528  and  _530
REMARK  218  A    between atoms: _530  and  _531
REMARK  219  A    between atoms: _530  and  _533
REMARK  220  A    between atoms: _533  and  _534
REMARK  221  A    between atoms: _537  and  _539
REMARK  222  A    between atoms: _539  and  _540
REMARK  223  A    between atoms: _542  and  _544
REMARK  224  A    between atoms: _544  and  _545
REMARK  225  A    between atoms: _544  and  _547
REMARK  226  A    between atoms: _547  and  _548
REMARK  227  A    between atoms: _548  and  _549
REMARK  228  A    between atoms: _549  and  _550
REMARK                            x       y       z     vdW  Elec       q    Type
REMARK                         _______ _______ _______ _____ _____    ______ ____
ROOT
ATOM      1  O   HOH     1      25.872  11.419  20.241  0.00  0.00    +0.000 OA
ENDROOT
TORSDOF 0
REMARK  Name = ../refined-set-2016/3ekw/3ekw_pocket.pdb
REMARK  228 active torsions:
REMARK  status: ('A' for Active; 'I' for Inactive)
REMARK    1  A    between atoms: _1  and  _3
REMARK    2  A    between atoms: _3  and  _4
REMARK    3  A    between atoms: _3  and  _6
REMARK    4  A    between atoms: _6  and  _7
REMARK    5  A    between atoms: _7  and  _8
REMARK    6  A    between atoms: _8  and  _9
REMARK    7  A    between atoms: _18  and  _20
REMARK    8  A    between atoms: _20  and  _21
REMARK    9  A    between atoms: _20  and  _23
REMARK   10  A    between atoms: _23  and  _24
REMARK   11  A    between atoms: _27  and  _29
REMARK   12  A    between atoms: _29  and  _30
REMARK   13  A    between atoms: _29  and  _32
REMARK   14  A    between atoms: _32  and  _33
REMARK   15  A    between atoms: _36  and  _38
REMARK   16  A    between atoms: _38  and  _39
REMARK   17  A    between atoms: _38  and  _41
REMARK   18  A    between atoms: _41  and  _42
REMARK   19  A    between atoms: _45  and  _47
REMARK   20  A    between atoms: _47  and  _48
REMARK   21  A    between atoms: _47  and  _50
REMARK   22  A    between atoms: _50  and  _51
REMARK   23  A    between atoms: _54  and  _56
REMARK   24  A    between atoms: _56  and  _57
REMARK   25  A    between atoms: _59  and  _61
REMARK   26  A    between atoms: _61  and  _62
REMARK   27  A    between atoms: _65  and  _67
REMARK   28  A    between atoms: _67  and  _68
REMARK   29  A    between atoms: _67  and  _70
REMARK   30  A    between atoms: _70  and  _71
REMARK   31  A    between atoms: _74  and  _76
REMARK   32  A    between atoms: _76  and  _77
REMARK   33  A    between atoms: _76  and  _79
REMARK   34  A    between atoms: _79  and  _80
REMARK   35  A    between atoms: _83  and  _85
REMARK   36  A    between atoms: _85  and  _86
REMARK   37  A    between atoms: _85  and  _88
REMARK   38  A    between atoms: _88  and  _89
REMARK   39  A    between atoms: _92  and  _94
REMARK   40  A    between atoms: _94  and  _95
REMARK   41  A    between atoms: _94  and  _97
REMARK   42  A    between atoms: _100  and  _102
REMARK   43  A    between atoms: _102  and  _103
REMARK   44  A    between atoms: _102  and  _105
REMARK   45  A    between atoms: _105  and  _106
REMARK   46  A    between atoms: _106  and  _107
REMARK   47  A    between atoms: _107  and  _108
REMARK   48  A    between atoms: _108  and  _109
REMARK   49  A    between atoms: _113  and  _115
REMARK   50  A    between atoms: _115  and  _116
REMARK   51  A    between atoms: _115  and  _118
REMARK   52  A    between atoms: _118  and  _119
REMARK   53  A    between atoms: _119  and  _120
REMARK   54  A    between atoms: _122  and  _124
REMARK   55  A    between atoms: _124  and  _125
REMARK   56  A    between atoms: _124  and  _127
REMARK   57  A    between atoms: _127  and  _128
REMARK   58  A    between atoms: _131  and  _133
REMARK   59  A    between atoms: _133  and  _134
REMARK   60  A    between atoms: _133  and  _136
REMARK   61  A    between atoms: _139  and  _141
REMARK   62  A    between atoms: _141  and  _142
REMARK   63  A    between atoms: _144  and  _146
REMARK   64  A    between atoms: _146  and  _147
REMARK   65  A    between atoms: _146  and  _149
REMARK   66  A    between atoms: _149  and  _150
REMARK   67  A    between atoms: _153  and  _155
REMARK   68  A    between atoms: _155  and  _156
REMARK   69  A    between atoms: _158  and  _160
REMARK   70  A    between atoms: _160  and  _161
REMARK   71  A    between atoms: _163  and  _165
REMARK   72  A    between atoms: _165  and  _166
REMARK   73  A    between atoms: _165  and  _168
REMARK   74  A    between atoms: _171  and  _173
REMARK   75  A    between atoms: _173  and  _174
REMARK   76  A    between atoms: _173  and  _176
REMARK   77  A    between atoms: _179  and  _181
REMARK   78  A    between atoms: _181  and  _182
REMARK   79  A    between atoms: _181  and  _184
REMARK   80  A    between atoms: _184  and  _185
REMARK   81  A    between atoms: _188  and  _190
REMARK   82  A    between atoms: _190  and  _191
REMARK   83  A    between atoms: _190  and  _193
REMARK   84  A    between atoms: _193  and  _194
REMARK   85  A    between atoms: _198  and  _199
REMARK   86  A    between atoms: _204  and  _206
REMARK   87  A    between atoms: _206  and  _207
REMARK   88  A    between atoms: _210  and  _212
REMARK   89  A    between atoms: _212  and  _213
REMARK   90  A    between atoms: _212  and  _215
REMARK   91  A    between atoms: _215  and  _216
REMARK   92  A    between atoms: _221  and  _223
REMARK   93  A    between atoms: _223  and  _224
REMARK   94  A    between atoms: _223  and  _226
REMARK   95  A    between atoms: _226  and  _227
REMARK   96  A    between atoms: _230  and  _232
REMARK   97  A    between atoms: _232  and  _233
REMARK   98  A    between atoms: _232  and  _235
REMARK   99  A    between atoms: _235  and  _236
REMARK  100  A    between atoms: _239  and  _241
REMARK  101  A    between atoms: _241  and  _242
REMARK  102  A    between atoms: _244  and  _246
REMARK  103  A    between atoms: _246  and  _247
REMARK  104  A    between atoms: _246  and  _249
REMARK  105  A    between atoms: _249  and  _250
REMARK  106  A    between atoms: _250  and  _251
REMARK  107  A    between atoms: _251  and  _252
REMARK  108  A    between atoms: _261  and  _263
REMARK  109  A    between atoms: _263  and  _264
REMARK  110  A    between atoms: _263  and  _266
REMARK  111  A    between atoms: _266  and  _267
REMARK  112  A    between atoms: _267  and  _268
REMARK  113  A    between atoms: _268  and  _269
REMARK  114  A    between atoms: _278  and  _280
REMARK  115  A    between atoms: _280  and  _281
REMARK  116  A    between atoms: _280  and  _283
REMARK  117  A    between atoms: _283  and  _284
REMARK  118  A    between atoms: _287  and  _289
REMARK  119  A    between atoms: _289  and  _290
REMARK  120  A    between atoms: _289  and  _292
REMARK  121  A    between atoms: _292  and  _293
REMARK  122  A    between atoms: _296  and  _298
REMARK  123  A    between atoms: _298  and  _299
REMARK  124  A    between atoms: _298  and  _301
REMARK  125  A    between atoms: _301  and  _302
REMARK  126  A    between atoms: _305  and  _307
REMARK  127  A    between atoms: _307  and  _308
REMARK  128  A    between atoms: _307  and  _310
REMARK  129  A    between atoms: _310  and  _311
REMARK  130  A    between atoms: _314  and  _316
REMARK  131  A    between atoms: _316  and  _317
REMARK  132  A    between atoms: _316  and  _319
REMARK  133  A    between atoms: _319  and  _320
REMARK  134  A    between atoms: _323  and  _325
REMARK  135  A    between atoms: _325  and  _326
REMARK  136  A    between atoms: _328  and  _330
REMARK  137  A    between atoms: _330  and  _331
REMARK  138  A    between atoms: _334  and  _336
REMARK  139  A    between atoms: _336  and  _337
REMARK  140  A    between atoms: _336  and  _339
REMARK  141  A    between atoms: _339  and  _340
REMARK  142  A    between atoms: _343  and  _345
REMARK  143  A    between atoms: _345  and  _346
REMARK  144  A    between atoms: _345  and  _348
REMARK  145  A    between atoms: _348  and  _349
REMARK  146  A    between atoms: _352  and  _354
REMARK  147  A    between atoms: _354  and  _355
REMARK  148  A    between atoms: _354  and  _357
REMARK  149  A    between atoms: _357  and  _358
REMARK  150  A    between atoms: _361  and  _363
REMARK  151  A    between atoms: _363  and  _364
REMARK  152  A    between atoms: _363  and  _366
REMARK  153  A    between atoms: _369  and  _371
REMARK  154  A    between atoms: _371  and  _372
REMARK  155  A    between atoms: _371  and  _374
REMARK  156  A    between atoms: _374  and  _375
REMARK  157  A    between atoms: _375  and  _376
REMARK  158  A    between atoms: _379  and  _381
REMARK  159  A    between atoms: _381  and  _382
REMARK  160  A    between atoms: _381  and  _384
REMARK  161  A    between atoms: _384  and  _385
REMARK  162  A    between atoms: _385  and  _386
REMARK  163  A    between atoms: _386  and  _387
REMARK  164  A    between atoms: _387  and  _388
REMARK  165  A    between atoms: _392  and  _394
REMARK  166  A    between atoms: _394  and  _395
REMARK  167  A    between atoms: _394  and  _397
REMARK  168  A    between atoms: _397  and  _398
REMARK  169  A    between atoms: _398  and  _399
REMARK  170  A    between atoms: _401  and  _403
REMARK  171  A    between atoms: _403  and  _404
REMARK  172  A    between atoms: _403  and  _406
REMARK  173  A    between atoms: _406  and  _407
REMARK  174  A    between atoms: _410  and  _412
REMARK  175  A    between atoms: _412  and  _413
REMARK  176  A    between atoms: _412  and  _415
REMARK  177  A    between atoms: _418  and  _420
REMARK  178  A    between atoms: _420  and  _421
REMARK  179  A    between atoms: _423  and  _425
REMARK  180  A    between atoms: _425  and  _426
REMARK  181  A    between atoms: _425  and  _428
REMARK  182  A    between atoms: _428  and  _429
REMARK  183  A    between atoms: _432  and  _434
REMARK  184  A    between atoms: _434  and  _435
REMARK  185  A    between atoms: _437  and  _439
REMARK  186  A    between atoms: _439  and  _440
REMARK  187  A    between atoms: _442  and  _444
REMARK  188  A    between atoms: _444  and  _445
REMARK  189  A    between atoms: _444  and  _447
REMARK  190  A    between atoms: _447  and  _448
REMARK  191  A    between atoms: _454  and  _456
REMARK  192  A    between atoms: _456  and  _457
REMARK  193  A    between atoms: _456  and  _459
REMARK  194  A    between atoms: _462  and  _464
REMARK  195  A    between atoms: _464  and  _465
REMARK  196  A    between atoms: _464  and  _467
REMARK  197  A    between atoms: _470  and  _472
REMARK  198  A    between atoms: _472  and  _473
REMARK  199  A    between atoms: _472  and  _475
REMARK  200  A    between atoms: _475  and  _476
REMARK  201  A    between atoms: _480  and  _481
REMARK  202  A    between atoms: _486  and  _488
REMARK  203  A    between atoms: _488  and  _489
REMARK  204  A    between atoms: _488  and  _491
REMARK  205  A    between atoms: _491  and  _492
REMARK  206  A    between atoms: _496  and  _497
REMARK  207  A    between atoms: _502  and  _504
REMARK  208  A    between atoms: _504  and  _505
REMARK  209  A    between atoms: _508  and  _510
REMARK  210  A    between atoms: _510  and  _511
REMARK  211  A    between atoms: _510  and  _513
REMARK  212  A    between atoms: _513  and  _514
REMARK  213  A    between atoms: _519  and  _521
REMARK  214  A    between atoms: _521  and  _522
REMARK  215  A    between atoms: _521  and  _524
REMARK  216  A    between atoms: _524  and  _525
REMARK  217  A    between atoms: _528  and  _530
REMARK  218  A    between atoms: _530  and  _531
REMARK  219  A    between atoms: _530  and  _533
REMARK  220  A    between atoms: _533  and  _534
REMARK  221  A    between atoms: _537  and  _539
REMARK  222  A    between atoms: _539  and  _540
REMARK  223  A    between atoms: _542  and  _544
REMARK  224  A    between atoms: _544  and  _545
REMARK  225  A    between atoms: _544  and  _547
REMARK  226  A    between atoms: _547  and  _548
REMARK  227  A    between atoms: _548  and  _549
REMARK  228  A    between atoms: _549  and  _550
REMARK                            x       y       z     vdW  Elec       q    Type
REMARK                         _______ _______ _______ _____ _____    ______ ____
ROOT
ATOM      1  O   HOH     1      29.494  -9.675  15.965  0.00  0.00    +0.000 OA
ENDROOT
TORSDOF 0
REMARK  Name = ../refined-set-2016/3ekw/3ekw_pocket.pdb
REMARK  228 active torsions:
REMARK  status: ('A' for Active; 'I' for Inactive)
REMARK    1  A    between atoms: _1  and  _3
REMARK    2  A    between atoms: _3  and  _4
REMARK    3  A    between atoms: _3  and  _6
REMARK    4  A    between atoms: _6  and  _7
REMARK    5  A    between atoms: _7  and  _8
REMARK    6  A    between atoms: _8  and  _9
REMARK    7  A    between atoms: _18  and  _20
REMARK    8  A    between atoms: _20  and  _21
REMARK    9  A    between atoms: _20  and  _23
REMARK   10  A    between atoms: _23  and  _24
REMARK   11  A    between atoms: _27  and  _29
REMARK   12  A    between atoms: _29  and  _30
REMARK   13  A    between atoms: _29  and  _32
REMARK   14  A    between atoms: _32  and  _33
REMARK   15  A    between atoms: _36  and  _38
REMARK   16  A    between atoms: _38  and  _39
REMARK   17  A    between atoms: _38  and  _41
REMARK   18  A    between atoms: _41  and  _42
REMARK   19  A    between atoms: _45  and  _47
REMARK   20  A    between atoms: _47  and  _48
REMARK   21  A    between atoms: _47  and  _50
REMARK   22  A    between atoms: _50  and  _51
REMARK   23  A    between atoms: _54  and  _56
REMARK   24  A    between atoms: _56  and  _57
REMARK   25  A    between atoms: _59  and  _61
REMARK   26  A    between atoms: _61  and  _62
REMARK   27  A    between atoms: _65  and  _67
REMARK   28  A    between atoms: _67  and  _68
REMARK   29  A    between atoms: _67  and  _70
REMARK   30  A    between atoms: _70  and  _71
REMARK   31  A    between atoms: _74  and  _76
REMARK   32  A    between atoms: _76  and  _77
REMARK   33  A    between atoms: _76  and  _79
REMARK   34  A    between atoms: _79  and  _80
REMARK   35  A    between atoms: _83  and  _85
REMARK   36  A    between atoms: _85  and  _86
REMARK   37  A    between atoms: _85  and  _88
REMARK   38  A    between atoms: _88  and  _89
REMARK   39  A    between atoms: _92  and  _94
REMARK   40  A    between atoms: _94  and  _95
REMARK   41  A    between atoms: _94  and  _97
REMARK   42  A    between atoms: _100  and  _102
REMARK   43  A    between atoms: _102  and  _103
REMARK   44  A    between atoms: _102  and  _105
REMARK   45  A    between atoms: _105  and  _106
REMARK   46  A    between atoms: _106  and  _107
REMARK   47  A    between atoms: _107  and  _108
REMARK   48  A    between atoms: _108  and  _109
REMARK   49  A    between atoms: _113  and  _115
REMARK   50  A    between atoms: _115  and  _116
REMARK   51  A    between atoms: _115  and  _118
REMARK   52  A    between atoms: _118  and  _119
REMARK   53  A    between atoms: _119  and  _120
REMARK   54  A    between atoms: _122  and  _124
REMARK   55  A    between atoms: _124  and  _125
REMARK   56  A    between atoms: _124  and  _127
REMARK   57  A    between atoms: _127  and  _128
REMARK   58  A    between atoms: _131  and  _133
REMARK   59  A    between atoms: _133  and  _134
REMARK   60  A    between atoms: _133  and  _136
REMARK   61  A    between atoms: _139  and  _141
REMARK   62  A    between atoms: _141  and  _142
REMARK   63  A    between atoms: _144  and  _146
REMARK   64  A    between atoms: _146  and  _147
REMARK   65  A    between atoms: _146  and  _149
REMARK   66  A    between atoms: _149  and  _150
REMARK   67  A    between atoms: _153  and  _155
REMARK   68  A    between atoms: _155  and  _156
REMARK   69  A    between atoms: _158  and  _160
REMARK   70  A    between atoms: _160  and  _161
REMARK   71  A    between atoms: _163  and  _165
REMARK   72  A    between atoms: _165  and  _166
REMARK   73  A    between atoms: _165  and  _168
REMARK   74  A    between atoms: _171  and  _173
REMARK   75  A    between atoms: _173  and  _174
REMARK   76  A    between atoms: _173  and  _176
REMARK   77  A    between atoms: _179  and  _181
REMARK   78  A    between atoms: _181  and  _182
REMARK   79  A    between atoms: _181  and  _184
REMARK   80  A    between atoms: _184  and  _185
REMARK   81  A    between atoms: _188  and  _190
REMARK   82  A    between atoms: _190  and  _191
REMARK   83  A    between atoms: _190  and  _193
REMARK   84  A    between atoms: _193  and  _194
REMARK   85  A    between atoms: _198  and  _199
REMARK   86  A    between atoms: _204  and  _206
REMARK   87  A    between atoms: _206  and  _207
REMARK   88  A    between atoms: _210  and  _212
REMARK   89  A    between atoms: _212  and  _213
REMARK   90  A    between atoms: _212  and  _215
REMARK   91  A    between atoms: _215  and  _216
REMARK   92  A    between atoms: _221  and  _223
REMARK   93  A    between atoms: _223  and  _224
REMARK   94  A    between atoms: _223  and  _226
REMARK   95  A    between atoms: _226  and  _227
REMARK   96  A    between atoms: _230  and  _232
REMARK   97  A    between atoms: _232  and  _233
REMARK   98  A    between atoms: _232  and  _235
REMARK   99  A    between atoms: _235  and  _236
REMARK  100  A    between atoms: _239  and  _241
REMARK  101  A    between atoms: _241  and  _242
REMARK  102  A    between atoms: _244  and  _246
REMARK  103  A    between atoms: _246  and  _247
REMARK  104  A    between atoms: _246  and  _249
REMARK  105  A    between atoms: _249  and  _250
REMARK  106  A    between atoms: _250  and  _251
REMARK  107  A    between atoms: _251  and  _252
REMARK  108  A    between atoms: _261  and  _263
REMARK  109  A    between atoms: _263  and  _264
REMARK  110  A    between atoms: _263  and  _266
REMARK  111  A    between atoms: _266  and  _267
REMARK  112  A    between atoms: _267  and  _268
REMARK  113  A    between atoms: _268  and  _269
REMARK  114  A    between atoms: _278  and  _280
REMARK  115  A    between atoms: _280  and  _281
REMARK  116  A    between atoms: _280  and  _283
REMARK  117  A    between atoms: _283  and  _284
REMARK  118  A    between atoms: _287  and  _289
REMARK  119  A    between atoms: _289  and  _290
REMARK  120  A    between atoms: _289  and  _292
REMARK  121  A    between atoms: _292  and  _293
REMARK  122  A    between atoms: _296  and  _298
REMARK  123  A    between atoms: _298  and  _299
REMARK  124  A    between atoms: _298  and  _301
REMARK  125  A    between atoms: _301  and  _302
REMARK  126  A    between atoms: _305  and  _307
REMARK  127  A    between atoms: _307  and  _308
REMARK  128  A    between atoms: _307  and  _310
REMARK  129  A    between atoms: _310  and  _311
REMARK  130  A    between atoms: _314  and  _316
REMARK  131  A    between atoms: _316  and  _317
REMARK  132  A    between atoms: _316  and  _319
REMARK  133  A    between atoms: _319  and  _320
REMARK  134  A    between atoms: _323  and  _325
REMARK  135  A    between atoms: _325  and  _326
REMARK  136  A    between atoms: _328  and  _330
REMARK  137  A    between atoms: _330  and  _331
REMARK  138  A    between atoms: _334  and  _336
REMARK  139  A    between atoms: _336  and  _337
REMARK  140  A    between atoms: _336  and  _339
REMARK  141  A    between atoms: _339  and  _340
REMARK  142  A    between atoms: _343  and  _345
REMARK  143  A    between atoms: _345  and  _346
REMARK  144  A    between atoms: _345  and  _348
REMARK  145  A    between atoms: _348  and  _349
REMARK  146  A    between atoms: _352  and  _354
REMARK  147  A    between atoms: _354  and  _355
REMARK  148  A    between atoms: _354  and  _357
REMARK  149  A    between atoms: _357  and  _358
REMARK  150  A    between atoms: _361  and  _363
REMARK  151  A    between atoms: _363  and  _364
REMARK  152  A    between atoms: _363  and  _366
REMARK  153  A    between atoms: _369  and  _371
REMARK  154  A    between atoms: _371  and  _372
REMARK  155  A    between atoms: _371  and  _374
REMARK  156  A    between atoms: _374  and  _375
REMARK  157  A    between atoms: _375  and  _376
REMARK  158  A    between atoms: _379  and  _381
REMARK  159  A    between atoms: _381  and  _382
REMARK  160  A    between atoms: _381  and  _384
REMARK  161  A    between atoms: _384  and  _385
REMARK  162  A    between atoms: _385  and  _386
REMARK  163  A    between atoms: _386  and  _387
REMARK  164  A    between atoms: _387  and  _388
REMARK  165  A    between atoms: _392  and  _394
REMARK  166  A    between atoms: _394  and  _395
REMARK  167  A    between atoms: _394  and  _397
REMARK  168  A    between atoms: _397  and  _398
REMARK  169  A    between atoms: _398  and  _399
REMARK  170  A    between atoms: _401  and  _403
REMARK  171  A    between atoms: _403  and  _404
REMARK  172  A    between atoms: _403  and  _406
REMARK  173  A    between atoms: _406  and  _407
REMARK  174  A    between atoms: _410  and  _412
REMARK  175  A    between atoms: _412  and  _413
REMARK  176  A    between atoms: _412  and  _415
REMARK  177  A    between atoms: _418  and  _420
REMARK  178  A    between atoms: _420  and  _421
REMARK  179  A    between atoms: _423  and  _425
REMARK  180  A    between atoms: _425  and  _426
REMARK  181  A    between atoms: _425  and  _428
REMARK  182  A    between atoms: _428  and  _429
REMARK  183  A    between atoms: _432  and  _434
REMARK  184  A    between atoms: _434  and  _435
REMARK  185  A    between atoms: _437  and  _439
REMARK  186  A    between atoms: _439  and  _440
REMARK  187  A    between atoms: _442  and  _444
REMARK  188  A    between atoms: _444  and  _445
REMARK  189  A    between atoms: _444  and  _447
REMARK  190  A    between atoms: _447  and  _448
REMARK  191  A    between atoms: _454  and  _456
REMARK  192  A    between atoms: _456  and  _457
REMARK  193  A    between atoms: _456  and  _459
REMARK  194  A    between atoms: _462  and  _464
REMARK  195  A    between atoms: _464  and  _465
REMARK  196  A    between atoms: _464  and  _467
REMARK  197  A    between atoms: _470  and  _472
REMARK  198  A    between atoms: _472  and  _473
REMARK  199  A    between atoms: _472  and  _475
REMARK  200  A    between atoms: _475  and  _476
REMARK  201  A    between atoms: _480  and  _481
REMARK  202  A    between atoms: _486  and  _488
REMARK  203  A    between atoms: _488  and  _489
REMARK  204  A    between atoms: _488  and  _491
REMARK  205  A    between atoms: _491  and  _492
REMARK  206  A    between atoms: _496  and  _497
REMARK  207  A    between atoms: _502  and  _504
REMARK  208  A    between atoms: _504  and  _505
REMARK  209  A    between atoms: _508  and  _510
REMARK  210  A    between atoms: _510  and  _511
REMARK  211  A    between atoms: _510  and  _513
REMARK  212  A    between atoms: _513  and  _514
REMARK  213  A    between atoms: _519  and  _521
REMARK  214  A    between atoms: _521  and  _522
REMARK  215  A    between atoms: _521  and  _524
REMARK  216  A    between atoms: _524  and  _525
REMARK  217  A    between atoms: _528  and  _530
REMARK  218  A    between atoms: _530  and  _531
REMARK  219  A    between atoms: _530  and  _533
REMARK  220  A    between atoms: _533  and  _534
REMARK  221  A    between atoms: _537  and  _539
REMARK  222  A    between atoms: _539  and  _540
REMARK  223  A    between atoms: _542  and  _544
REMARK  224  A    between atoms: _544  and  _545
REMARK  225  A    between atoms: _544  and  _547
REMARK  226  A    between atoms: _547  and  _548
REMARK  227  A    between atoms: _548  and  _549
REMARK  228  A    between atoms: _549  and  _550
REMARK                            x       y       z     vdW  Elec       q    Type
REMARK                         _______ _______ _______ _____ _____    ______ ____
ROOT
ATOM      1  O   HOH     1      20.531   7.858  15.772  0.00  0.00    +0.000 OA
ENDROOT
TORSDOF 0
REMARK  Name = ../refined-set-2016/3ekw/3ekw_pocket.pdb
REMARK  228 active torsions:
REMARK  status: ('A' for Active; 'I' for Inactive)
REMARK    1  A    between atoms: _1  and  _3
REMARK    2  A    between atoms: _3  and  _4
REMARK    3  A    between atoms: _3  and  _6
REMARK    4  A    between atoms: _6  and  _7
REMARK    5  A    between atoms: _7  and  _8
REMARK    6  A    between atoms: _8  and  _9
REMARK    7  A    between atoms: _18  and  _20
REMARK    8  A    between atoms: _20  and  _21
REMARK    9  A    between atoms: _20  and  _23
REMARK   10  A    between atoms: _23  and  _24
REMARK   11  A    between atoms: _27  and  _29
REMARK   12  A    between atoms: _29  and  _30
REMARK   13  A    between atoms: _29  and  _32
REMARK   14  A    between atoms: _32  and  _33
REMARK   15  A    between atoms: _36  and  _38
REMARK   16  A    between atoms: _38  and  _39
REMARK   17  A    between atoms: _38  and  _41
REMARK   18  A    between atoms: _41  and  _42
REMARK   19  A    between atoms: _45  and  _47
REMARK   20  A    between atoms: _47  and  _48
REMARK   21  A    between atoms: _47  and  _50
REMARK   22  A    between atoms: _50  and  _51
REMARK   23  A    between atoms: _54  and  _56
REMARK   24  A    between atoms: _56  and  _57
REMARK   25  A    between atoms: _59  and  _61
REMARK   26  A    between atoms: _61  and  _62
REMARK   27  A    between atoms: _65  and  _67
REMARK   28  A    between atoms: _67  and  _68
REMARK   29  A    between atoms: _67  and  _70
REMARK   30  A    between atoms: _70  and  _71
REMARK   31  A    between atoms: _74  and  _76
REMARK   32  A    between atoms: _76  and  _77
REMARK   33  A    between atoms: _76  and  _79
REMARK   34  A    between atoms: _79  and  _80
REMARK   35  A    between atoms: _83  and  _85
REMARK   36  A    between atoms: _85  and  _86
REMARK   37  A    between atoms: _85  and  _88
REMARK   38  A    between atoms: _88  and  _89
REMARK   39  A    between atoms: _92  and  _94
REMARK   40  A    between atoms: _94  and  _95
REMARK   41  A    between atoms: _94  and  _97
REMARK   42  A    between atoms: _100  and  _102
REMARK   43  A    between atoms: _102  and  _103
REMARK   44  A    between atoms: _102  and  _105
REMARK   45  A    between atoms: _105  and  _106
REMARK   46  A    between atoms: _106  and  _107
REMARK   47  A    between atoms: _107  and  _108
REMARK   48  A    between atoms: _108  and  _109
REMARK   49  A    between atoms: _113  and  _115
REMARK   50  A    between atoms: _115  and  _116
REMARK   51  A    between atoms: _115  and  _118
REMARK   52  A    between atoms: _118  and  _119
REMARK   53  A    between atoms: _119  and  _120
REMARK   54  A    between atoms: _122  and  _124
REMARK   55  A    between atoms: _124  and  _125
REMARK   56  A    between atoms: _124  and  _127
REMARK   57  A    between atoms: _127  and  _128
REMARK   58  A    between atoms: _131  and  _133
REMARK   59  A    between atoms: _133  and  _134
REMARK   60  A    between atoms: _133  and  _136
REMARK   61  A    between atoms: _139  and  _141
REMARK   62  A    between atoms: _141  and  _142
REMARK   63  A    between atoms: _144  and  _146
REMARK   64  A    between atoms: _146  and  _147
REMARK   65  A    between atoms: _146  and  _149
REMARK   66  A    between atoms: _149  and  _150
REMARK   67  A    between atoms: _153  and  _155
REMARK   68  A    between atoms: _155  and  _156
REMARK   69  A    between atoms: _158  and  _160
REMARK   70  A    between atoms: _160  and  _161
REMARK   71  A    between atoms: _163  and  _165
REMARK   72  A    between atoms: _165  and  _166
REMARK   73  A    between atoms: _165  and  _168
REMARK   74  A    between atoms: _171  and  _173
REMARK   75  A    between atoms: _173  and  _174
REMARK   76  A    between atoms: _173  and  _176
REMARK   77  A    between atoms: _179  and  _181
REMARK   78  A    between atoms: _181  and  _182
REMARK   79  A    between atoms: _181  and  _184
REMARK   80  A    between atoms: _184  and  _185
REMARK   81  A    between atoms: _188  and  _190
REMARK   82  A    between atoms: _190  and  _191
REMARK   83  A    between atoms: _190  and  _193
REMARK   84  A    between atoms: _193  and  _194
REMARK   85  A    between atoms: _198  and  _199
REMARK   86  A    between atoms: _204  and  _206
REMARK   87  A    between atoms: _206  and  _207
REMARK   88  A    between atoms: _210  and  _212
REMARK   89  A    between atoms: _212  and  _213
REMARK   90  A    between atoms: _212  and  _215
REMARK   91  A    between atoms: _215  and  _216
REMARK   92  A    between atoms: _221  and  _223
REMARK   93  A    between atoms: _223  and  _224
REMARK   94  A    between atoms: _223  and  _226
REMARK   95  A    between atoms: _226  and  _227
REMARK   96  A    between atoms: _230  and  _232
REMARK   97  A    between atoms: _232  and  _233
REMARK   98  A    between atoms: _232  and  _235
REMARK   99  A    between atoms: _235  and  _236
REMARK  100  A    between atoms: _239  and  _241
REMARK  101  A    between atoms: _241  and  _242
REMARK  102  A    between atoms: _244  and  _246
REMARK  103  A    between atoms: _246  and  _247
REMARK  104  A    between atoms: _246  and  _249
REMARK  105  A    between atoms: _249  and  _250
REMARK  106  A    between atoms: _250  and  _251
REMARK  107  A    between atoms: _251  and  _252
REMARK  108  A    between atoms: _261  and  _263
REMARK  109  A    between atoms: _263  and  _264
REMARK  110  A    between atoms: _263  and  _266
REMARK  111  A    between atoms: _266  and  _267
REMARK  112  A    between atoms: _267  and  _268
REMARK  113  A    between atoms: _268  and  _269
REMARK  114  A    between atoms: _278  and  _280
REMARK  115  A    between atoms: _280  and  _281
REMARK  116  A    between atoms: _280  and  _283
REMARK  117  A    between atoms: _283  and  _284
REMARK  118  A    between atoms: _287  and  _289
REMARK  119  A    between atoms: _289  and  _290
REMARK  120  A    between atoms: _289  and  _292
REMARK  121  A    between atoms: _292  and  _293
REMARK  122  A    between atoms: _296  and  _298
REMARK  123  A    between atoms: _298  and  _299
REMARK  124  A    between atoms: _298  and  _301
REMARK  125  A    between atoms: _301  and  _302
REMARK  126  A    between atoms: _305  and  _307
REMARK  127  A    between atoms: _307  and  _308
REMARK  128  A    between atoms: _307  and  _310
REMARK  129  A    between atoms: _310  and  _311
REMARK  130  A    between atoms: _314  and  _316
REMARK  131  A    between atoms: _316  and  _317
REMARK  132  A    between atoms: _316  and  _319
REMARK  133  A    between atoms: _319  and  _320
REMARK  134  A    between atoms: _323  and  _325
REMARK  135  A    between atoms: _325  and  _326
REMARK  136  A    between atoms: _328  and  _330
REMARK  137  A    between atoms: _330  and  _331
REMARK  138  A    between atoms: _334  and  _336
REMARK  139  A    between atoms: _336  and  _337
REMARK  140  A    between atoms: _336  and  _339
REMARK  141  A    between atoms: _339  and  _340
REMARK  142  A    between atoms: _343  and  _345
REMARK  143  A    between atoms: _345  and  _346
REMARK  144  A    between atoms: _345  and  _348
REMARK  145  A    between atoms: _348  and  _349
REMARK  146  A    between atoms: _352  and  _354
REMARK  147  A    between atoms: _354  and  _355
REMARK  148  A    between atoms: _354  and  _357
REMARK  149  A    between atoms: _357  and  _358
REMARK  150  A    between atoms: _361  and  _363
REMARK  151  A    between atoms: _363  and  _364
REMARK  152  A    between atoms: _363  and  _366
REMARK  153  A    between atoms: _369  and  _371
REMARK  154  A    between atoms: _371  and  _372
REMARK  155  A    between atoms: _371  and  _374
REMARK  156  A    between atoms: _374  and  _375
REMARK  157  A    between atoms: _375  and  _376
REMARK  158  A    between atoms: _379  and  _381
REMARK  159  A    between atoms: _381  and  _382
REMARK  160  A    between atoms: _381  and  _384
REMARK  161  A    between atoms: _384  and  _385
REMARK  162  A    between atoms: _385  and  _386
REMARK  163  A    between atoms: _386  and  _387
REMARK  164  A    between atoms: _387  and  _388
REMARK  165  A    between atoms: _392  and  _394
REMARK  166  A    between atoms: _394  and  _395
REMARK  167  A    between atoms: _394  and  _397
REMARK  168  A    between atoms: _397  and  _398
REMARK  169  A    between atoms: _398  and  _399
REMARK  170  A    between atoms: _401  and  _403
REMARK  171  A    between atoms: _403  and  _404
REMARK  172  A    between atoms: _403  and  _406
REMARK  173  A    between atoms: _406  and  _407
REMARK  174  A    between atoms: _410  and  _412
REMARK  175  A    between atoms: _412  and  _413
REMARK  176  A    between atoms: _412  and  _415
REMARK  177  A    between atoms: _418  and  _420
REMARK  178  A    between atoms: _420  and  _421
REMARK  179  A    between atoms: _423  and  _425
REMARK  180  A    between atoms: _425  and  _426
REMARK  181  A    between atoms: _425  and  _428
REMARK  182  A    between atoms: _428  and  _429
REMARK  183  A    between atoms: _432  and  _434
REMARK  184  A    between atoms: _434  and  _435
REMARK  185  A    between atoms: _437  and  _439
REMARK  186  A    between atoms: _439  and  _440
REMARK  187  A    between atoms: _442  and  _444
REMARK  188  A    between atoms: _444  and  _445
REMARK  189  A    between atoms: _444  and  _447
REMARK  190  A    between atoms: _447  and  _448
REMARK  191  A    between atoms: _454  and  _456
REMARK  192  A    between atoms: _456  and  _457
REMARK  193  A    between atoms: _456  and  _459
REMARK  194  A    between atoms: _462  and  _464
REMARK  195  A    between atoms: _464  and  _465
REMARK  196  A    between atoms: _464  and  _467
REMARK  197  A    between atoms: _470  and  _472
REMARK  198  A    between atoms: _472  and  _473
REMARK  199  A    between atoms: _472  and  _475
REMARK  200  A    between atoms: _475  and  _476
REMARK  201  A    between atoms: _480  and  _481
REMARK  202  A    between atoms: _486  and  _488
REMARK  203  A    between atoms: _488  and  _489
REMARK  204  A    between atoms: _488  and  _491
REMARK  205  A    between atoms: _491  and  _492
REMARK  206  A    between atoms: _496  and  _497
REMARK  207  A    between atoms: _502  and  _504
REMARK  208  A    between atoms: _504  and  _505
REMARK  209  A    between atoms: _508  and  _510
REMARK  210  A    between atoms: _510  and  _511
REMARK  211  A    between atoms: _510  and  _513
REMARK  212  A    between atoms: _513  and  _514
REMARK  213  A    between atoms: _519  and  _521
REMARK  214  A    between atoms: _521  and  _522
REMARK  215  A    between atoms: _521  and  _524
REMARK  216  A    between atoms: _524  and  _525
REMARK  217  A    between atoms: _528  and  _530
REMARK  218  A    between atoms: _530  and  _531
REMARK  219  A    between atoms: _530  and  _533
REMARK  220  A    between atoms: _533  and  _534
REMARK  221  A    between atoms: _537  and  _539
REMARK  222  A    between atoms: _539  and  _540
REMARK  223  A    between atoms: _542  and  _544
REMARK  224  A    between atoms: _544  and  _545
REMARK  225  A    between atoms: _544  and  _547
REMARK  226  A    between atoms: _547  and  _548
REMARK  227  A    between atoms: _548  and  _549
REMARK  228  A    between atoms: _549  and  _550
REMARK                            x       y       z     vdW  Elec       q    Type
REMARK                         _______ _______ _______ _____ _____    ______ ____
ROOT
ATOM      1  O   HOH     1      27.532  -5.544  10.623  0.00  0.00    +0.000 OA
ENDROOT
TORSDOF 0
REMARK  Name = ../refined-set-2016/3ekw/3ekw_pocket.pdb
REMARK  228 active torsions:
REMARK  status: ('A' for Active; 'I' for Inactive)
REMARK    1  A    between atoms: _1  and  _3
REMARK    2  A    between atoms: _3  and  _4
REMARK    3  A    between atoms: _3  and  _6
REMARK    4  A    between atoms: _6  and  _7
REMARK    5  A    between atoms: _7  and  _8
REMARK    6  A    between atoms: _8  and  _9
REMARK    7  A    between atoms: _18  and  _20
REMARK    8  A    between atoms: _20  and  _21
REMARK    9  A    between atoms: _20  and  _23
REMARK   10  A    between atoms: _23  and  _24
REMARK   11  A    between atoms: _27  and  _29
REMARK   12  A    between atoms: _29  and  _30
REMARK   13  A    between atoms: _29  and  _32
REMARK   14  A    between atoms: _32  and  _33
REMARK   15  A    between atoms: _36  and  _38
REMARK   16  A    between atoms: _38  and  _39
REMARK   17  A    between atoms: _38  and  _41
REMARK   18  A    between atoms: _41  and  _42
REMARK   19  A    between atoms: _45  and  _47
REMARK   20  A    between atoms: _47  and  _48
REMARK   21  A    between atoms: _47  and  _50
REMARK   22  A    between atoms: _50  and  _51
REMARK   23  A    between atoms: _54  and  _56
REMARK   24  A    between atoms: _56  and  _57
REMARK   25  A    between atoms: _59  and  _61
REMARK   26  A    between atoms: _61  and  _62
REMARK   27  A    between atoms: _65  and  _67
REMARK   28  A    between atoms: _67  and  _68
REMARK   29  A    between atoms: _67  and  _70
REMARK   30  A    between atoms: _70  and  _71
REMARK   31  A    between atoms: _74  and  _76
REMARK   32  A    between atoms: _76  and  _77
REMARK   33  A    between atoms: _76  and  _79
REMARK   34  A    between atoms: _79  and  _80
REMARK   35  A    between atoms: _83  and  _85
REMARK   36  A    between atoms: _85  and  _86
REMARK   37  A    between atoms: _85  and  _88
REMARK   38  A    between atoms: _88  and  _89
REMARK   39  A    between atoms: _92  and  _94
REMARK   40  A    between atoms: _94  and  _95
REMARK   41  A    between atoms: _94  and  _97
REMARK   42  A    between atoms: _100  and  _102
REMARK   43  A    between atoms: _102  and  _103
REMARK   44  A    between atoms: _102  and  _105
REMARK   45  A    between atoms: _105  and  _106
REMARK   46  A    between atoms: _106  and  _107
REMARK   47  A    between atoms: _107  and  _108
REMARK   48  A    between atoms: _108  and  _109
REMARK   49  A    between atoms: _113  and  _115
REMARK   50  A    between atoms: _115  and  _116
REMARK   51  A    between atoms: _115  and  _118
REMARK   52  A    between atoms: _118  and  _119
REMARK   53  A    between atoms: _119  and  _120
REMARK   54  A    between atoms: _122  and  _124
REMARK   55  A    between atoms: _124  and  _125
REMARK   56  A    between atoms: _124  and  _127
REMARK   57  A    between atoms: _127  and  _128
REMARK   58  A    between atoms: _131  and  _133
REMARK   59  A    between atoms: _133  and  _134
REMARK   60  A    between atoms: _133  and  _136
REMARK   61  A    between atoms: _139  and  _141
REMARK   62  A    between atoms: _141  and  _142
REMARK   63  A    between atoms: _144  and  _146
REMARK   64  A    between atoms: _146  and  _147
REMARK   65  A    between atoms: _146  and  _149
REMARK   66  A    between atoms: _149  and  _150
REMARK   67  A    between atoms: _153  and  _155
REMARK   68  A    between atoms: _155  and  _156
REMARK   69  A    between atoms: _158  and  _160
REMARK   70  A    between atoms: _160  and  _161
REMARK   71  A    between atoms: _163  and  _165
REMARK   72  A    between atoms: _165  and  _166
REMARK   73  A    between atoms: _165  and  _168
REMARK   74  A    between atoms: _171  and  _173
REMARK   75  A    between atoms: _173  and  _174
REMARK   76  A    between atoms: _173  and  _176
REMARK   77  A    between atoms: _179  and  _181
REMARK   78  A    between atoms: _181  and  _182
REMARK   79  A    between atoms: _181  and  _184
REMARK   80  A    between atoms: _184  and  _185
REMARK   81  A    between atoms: _188  and  _190
REMARK   82  A    between atoms: _190  and  _191
REMARK   83  A    between atoms: _190  and  _193
REMARK   84  A    between atoms: _193  and  _194
REMARK   85  A    between atoms: _198  and  _199
REMARK   86  A    between atoms: _204  and  _206
REMARK   87  A    between atoms: _206  and  _207
REMARK   88  A    between atoms: _210  and  _212
REMARK   89  A    between atoms: _212  and  _213
REMARK   90  A    between atoms: _212  and  _215
REMARK   91  A    between atoms: _215  and  _216
REMARK   92  A    between atoms: _221  and  _223
REMARK   93  A    between atoms: _223  and  _224
REMARK   94  A    between atoms: _223  and  _226
REMARK   95  A    between atoms: _226  and  _227
REMARK   96  A    between atoms: _230  and  _232
REMARK   97  A    between atoms: _232  and  _233
REMARK   98  A    between atoms: _232  and  _235
REMARK   99  A    between atoms: _235  and  _236
REMARK  100  A    between atoms: _239  and  _241
REMARK  101  A    between atoms: _241  and  _242
REMARK  102  A    between atoms: _244  and  _246
REMARK  103  A    between atoms: _246  and  _247
REMARK  104  A    between atoms: _246  and  _249
REMARK  105  A    between atoms: _249  and  _250
REMARK  106  A    between atoms: _250  and  _251
REMARK  107  A    between atoms: _251  and  _252
REMARK  108  A    between atoms: _261  and  _263
REMARK  109  A    between atoms: _263  and  _264
REMARK  110  A    between atoms: _263  and  _266
REMARK  111  A    between atoms: _266  and  _267
REMARK  112  A    between atoms: _267  and  _268
REMARK  113  A    between atoms: _268  and  _269
REMARK  114  A    between atoms: _278  and  _280
REMARK  115  A    between atoms: _280  and  _281
REMARK  116  A    between atoms: _280  and  _283
REMARK  117  A    between atoms: _283  and  _284
REMARK  118  A    between atoms: _287  and  _289
REMARK  119  A    between atoms: _289  and  _290
REMARK  120  A    between atoms: _289  and  _292
REMARK  121  A    between atoms: _292  and  _293
REMARK  122  A    between atoms: _296  and  _298
REMARK  123  A    between atoms: _298  and  _299
REMARK  124  A    between atoms: _298  and  _301
REMARK  125  A    between atoms: _301  and  _302
REMARK  126  A    between atoms: _305  and  _307
REMARK  127  A    between atoms: _307  and  _308
REMARK  128  A    between atoms: _307  and  _310
REMARK  129  A    between atoms: _310  and  _311
REMARK  130  A    between atoms: _314  and  _316
REMARK  131  A    between atoms: _316  and  _317
REMARK  132  A    between atoms: _316  and  _319
REMARK  133  A    between atoms: _319  and  _320
REMARK  134  A    between atoms: _323  and  _325
REMARK  135  A    between atoms: _325  and  _326
REMARK  136  A    between atoms: _328  and  _330
REMARK  137  A    between atoms: _330  and  _331
REMARK  138  A    between atoms: _334  and  _336
REMARK  139  A    between atoms: _336  and  _337
REMARK  140  A    between atoms: _336  and  _339
REMARK  141  A    between atoms: _339  and  _340
REMARK  142  A    between atoms: _343  and  _345
REMARK  143  A    between atoms: _345  and  _346
REMARK  144  A    between atoms: _345  and  _348
REMARK  145  A    between atoms: _348  and  _349
REMARK  146  A    between atoms: _352  and  _354
REMARK  147  A    between atoms: _354  and  _355
REMARK  148  A    between atoms: _354  and  _357
REMARK  149  A    between atoms: _357  and  _358
REMARK  150  A    between atoms: _361  and  _363
REMARK  151  A    between atoms: _363  and  _364
REMARK  152  A    between atoms: _363  and  _366
REMARK  153  A    between atoms: _369  and  _371
REMARK  154  A    between atoms: _371  and  _372
REMARK  155  A    between atoms: _371  and  _374
REMARK  156  A    between atoms: _374  and  _375
REMARK  157  A    between atoms: _375  and  _376
REMARK  158  A    between atoms: _379  and  _381
REMARK  159  A    between atoms: _381  and  _382
REMARK  160  A    between atoms: _381  and  _384
REMARK  161  A    between atoms: _384  and  _385
REMARK  162  A    between atoms: _385  and  _386
REMARK  163  A    between atoms: _386  and  _387
REMARK  164  A    between atoms: _387  and  _388
REMARK  165  A    between atoms: _392  and  _394
REMARK  166  A    between atoms: _394  and  _395
REMARK  167  A    between atoms: _394  and  _397
REMARK  168  A    between atoms: _397  and  _398
REMARK  169  A    between atoms: _398  and  _399
REMARK  170  A    between atoms: _401  and  _403
REMARK  171  A    between atoms: _403  and  _404
REMARK  172  A    between atoms: _403  and  _406
REMARK  173  A    between atoms: _406  and  _407
REMARK  174  A    between atoms: _410  and  _412
REMARK  175  A    between atoms: _412  and  _413
REMARK  176  A    between atoms: _412  and  _415
REMARK  177  A    between atoms: _418  and  _420
REMARK  178  A    between atoms: _420  and  _421
REMARK  179  A    between atoms: _423  and  _425
REMARK  180  A    between atoms: _425  and  _426
REMARK  181  A    between atoms: _425  and  _428
REMARK  182  A    between atoms: _428  and  _429
REMARK  183  A    between atoms: _432  and  _434
REMARK  184  A    between atoms: _434  and  _435
REMARK  185  A    between atoms: _437  and  _439
REMARK  186  A    between atoms: _439  and  _440
REMARK  187  A    between atoms: _442  and  _444
REMARK  188  A    between atoms: _444  and  _445
REMARK  189  A    between atoms: _444  and  _447
REMARK  190  A    between atoms: _447  and  _448
REMARK  191  A    between atoms: _454  and  _456
REMARK  192  A    between atoms: _456  and  _457
REMARK  193  A    between atoms: _456  and  _459
REMARK  194  A    between atoms: _462  and  _464
REMARK  195  A    between atoms: _464  and  _465
REMARK  196  A    between atoms: _464  and  _467
REMARK  197  A    between atoms: _470  and  _472
REMARK  198  A    between atoms: _472  and  _473
REMARK  199  A    between atoms: _472  and  _475
REMARK  200  A    between atoms: _475  and  _476
REMARK  201  A    between atoms: _480  and  _481
REMARK  202  A    between atoms: _486  and  _488
REMARK  203  A    between atoms: _488  and  _489
REMARK  204  A    between atoms: _488  and  _491
REMARK  205  A    between atoms: _491  and  _492
REMARK  206  A    between atoms: _496  and  _497
REMARK  207  A    between atoms: _502  and  _504
REMARK  208  A    between atoms: _504  and  _505
REMARK  209  A    between atoms: _508  and  _510
REMARK  210  A    between atoms: _510  and  _511
REMARK  211  A    between atoms: _510  and  _513
REMARK  212  A    between atoms: _513  and  _514
REMARK  213  A    between atoms: _519  and  _521
REMARK  214  A    between atoms: _521  and  _522
REMARK  215  A    between atoms: _521  and  _524
REMARK  216  A    between atoms: _524  and  _525
REMARK  217  A    between atoms: _528  and  _530
REMARK  218  A    between atoms: _530  and  _531
REMARK  219  A    between atoms: _530  and  _533
REMARK  220  A    between atoms: _533  and  _534
REMARK  221  A    between atoms: _537  and  _539
REMARK  222  A    between atoms: _539  and  _540
REMARK  223  A    between atoms: _542  and  _544
REMARK  224  A    between atoms: _544  and  _545
REMARK  225  A    between atoms: _544  and  _547
REMARK  226  A    between atoms: _547  and  _548
REMARK  227  A    between atoms: _548  and  _549
REMARK  228  A    between atoms: _549  and  _550
REMARK                            x       y       z     vdW  Elec       q    Type
REMARK                         _______ _______ _______ _____ _____    ______ ____
ROOT
ATOM      1  O   HOH     1      22.699  -9.068  12.876  0.00  0.00    +0.000 OA
ENDROOT
TORSDOF 0
REMARK  Name = ../refined-set-2016/3ekw/3ekw_pocket.pdb
REMARK  228 active torsions:
REMARK  status: ('A' for Active; 'I' for Inactive)
REMARK    1  A    between atoms: _1  and  _3
REMARK    2  A    between atoms: _3  and  _4
REMARK    3  A    between atoms: _3  and  _6
REMARK    4  A    between atoms: _6  and  _7
REMARK    5  A    between atoms: _7  and  _8
REMARK    6  A    between atoms: _8  and  _9
REMARK    7  A    between atoms: _18  and  _20
REMARK    8  A    between atoms: _20  and  _21
REMARK    9  A    between atoms: _20  and  _23
REMARK   10  A    between atoms: _23  and  _24
REMARK   11  A    between atoms: _27  and  _29
REMARK   12  A    between atoms: _29  and  _30
REMARK   13  A    between atoms: _29  and  _32
REMARK   14  A    between atoms: _32  and  _33
REMARK   15  A    between atoms: _36  and  _38
REMARK   16  A    between atoms: _38  and  _39
REMARK   17  A    between atoms: _38  and  _41
REMARK   18  A    between atoms: _41  and  _42
REMARK   19  A    between atoms: _45  and  _47
REMARK   20  A    between atoms: _47  and  _48
REMARK   21  A    between atoms: _47  and  _50
REMARK   22  A    between atoms: _50  and  _51
REMARK   23  A    between atoms: _54  and  _56
REMARK   24  A    between atoms: _56  and  _57
REMARK   25  A    between atoms: _59  and  _61
REMARK   26  A    between atoms: _61  and  _62
REMARK   27  A    between atoms: _65  and  _67
REMARK   28  A    between atoms: _67  and  _68
REMARK   29  A    between atoms: _67  and  _70
REMARK   30  A    between atoms: _70  and  _71
REMARK   31  A    between atoms: _74  and  _76
REMARK   32  A    between atoms: _76  and  _77
REMARK   33  A    between atoms: _76  and  _79
REMARK   34  A    between atoms: _79  and  _80
REMARK   35  A    between atoms: _83  and  _85
REMARK   36  A    between atoms: _85  and  _86
REMARK   37  A    between atoms: _85  and  _88
REMARK   38  A    between atoms: _88  and  _89
REMARK   39  A    between atoms: _92  and  _94
REMARK   40  A    between atoms: _94  and  _95
REMARK   41  A    between atoms: _94  and  _97
REMARK   42  A    between atoms: _100  and  _102
REMARK   43  A    between atoms: _102  and  _103
REMARK   44  A    between atoms: _102  and  _105
REMARK   45  A    between atoms: _105  and  _106
REMARK   46  A    between atoms: _106  and  _107
REMARK   47  A    between atoms: _107  and  _108
REMARK   48  A    between atoms: _108  and  _109
REMARK   49  A    between atoms: _113  and  _115
REMARK   50  A    between atoms: _115  and  _116
REMARK   51  A    between atoms: _115  and  _118
REMARK   52  A    between atoms: _118  and  _119
REMARK   53  A    between atoms: _119  and  _120
REMARK   54  A    between atoms: _122  and  _124
REMARK   55  A    between atoms: _124  and  _125
REMARK   56  A    between atoms: _124  and  _127
REMARK   57  A    between atoms: _127  and  _128
REMARK   58  A    between atoms: _131  and  _133
REMARK   59  A    between atoms: _133  and  _134
REMARK   60  A    between atoms: _133  and  _136
REMARK   61  A    between atoms: _139  and  _141
REMARK   62  A    between atoms: _141  and  _142
REMARK   63  A    between atoms: _144  and  _146
REMARK   64  A    between atoms: _146  and  _147
REMARK   65  A    between atoms: _146  and  _149
REMARK   66  A    between atoms: _149  and  _150
REMARK   67  A    between atoms: _153  and  _155
REMARK   68  A    between atoms: _155  and  _156
REMARK   69  A    between atoms: _158  and  _160
REMARK   70  A    between atoms: _160  and  _161
REMARK   71  A    between atoms: _163  and  _165
REMARK   72  A    between atoms: _165  and  _166
REMARK   73  A    between atoms: _165  and  _168
REMARK   74  A    between atoms: _171  and  _173
REMARK   75  A    between atoms: _173  and  _174
REMARK   76  A    between atoms: _173  and  _176
REMARK   77  A    between atoms: _179  and  _181
REMARK   78  A    between atoms: _181  and  _182
REMARK   79  A    between atoms: _181  and  _184
REMARK   80  A    between atoms: _184  and  _185
REMARK   81  A    between atoms: _188  and  _190
REMARK   82  A    between atoms: _190  and  _191
REMARK   83  A    between atoms: _190  and  _193
REMARK   84  A    between atoms: _193  and  _194
REMARK   85  A    between atoms: _198  and  _199
REMARK   86  A    between atoms: _204  and  _206
REMARK   87  A    between atoms: _206  and  _207
REMARK   88  A    between atoms: _210  and  _212
REMARK   89  A    between atoms: _212  and  _213
REMARK   90  A    between atoms: _212  and  _215
REMARK   91  A    between atoms: _215  and  _216
REMARK   92  A    between atoms: _221  and  _223
REMARK   93  A    between atoms: _223  and  _224
REMARK   94  A    between atoms: _223  and  _226
REMARK   95  A    between atoms: _226  and  _227
REMARK   96  A    between atoms: _230  and  _232
REMARK   97  A    between atoms: _232  and  _233
REMARK   98  A    between atoms: _232  and  _235
REMARK   99  A    between atoms: _235  and  _236
REMARK  100  A    between atoms: _239  and  _241
REMARK  101  A    between atoms: _241  and  _242
REMARK  102  A    between atoms: _244  and  _246
REMARK  103  A    between atoms: _246  and  _247
REMARK  104  A    between atoms: _246  and  _249
REMARK  105  A    between atoms: _249  and  _250
REMARK  106  A    between atoms: _250  and  _251
REMARK  107  A    between atoms: _251  and  _252
REMARK  108  A    between atoms: _261  and  _263
REMARK  109  A    between atoms: _263  and  _264
REMARK  110  A    between atoms: _263  and  _266
REMARK  111  A    between atoms: _266  and  _267
REMARK  112  A    between atoms: _267  and  _268
REMARK  113  A    between atoms: _268  and  _269
REMARK  114  A    between atoms: _278  and  _280
REMARK  115  A    between atoms: _280  and  _281
REMARK  116  A    between atoms: _280  and  _283
REMARK  117  A    between atoms: _283  and  _284
REMARK  118  A    between atoms: _287  and  _289
REMARK  119  A    between atoms: _289  and  _290
REMARK  120  A    between atoms: _289  and  _292
REMARK  121  A    between atoms: _292  and  _293
REMARK  122  A    between atoms: _296  and  _298
REMARK  123  A    between atoms: _298  and  _299
REMARK  124  A    between atoms: _298  and  _301
REMARK  125  A    between atoms: _301  and  _302
REMARK  126  A    between atoms: _305  and  _307
REMARK  127  A    between atoms: _307  and  _308
REMARK  128  A    between atoms: _307  and  _310
REMARK  129  A    between atoms: _310  and  _311
REMARK  130  A    between atoms: _314  and  _316
REMARK  131  A    between atoms: _316  and  _317
REMARK  132  A    between atoms: _316  and  _319
REMARK  133  A    between atoms: _319  and  _320
REMARK  134  A    between atoms: _323  and  _325
REMARK  135  A    between atoms: _325  and  _326
REMARK  136  A    between atoms: _328  and  _330
REMARK  137  A    between atoms: _330  and  _331
REMARK  138  A    between atoms: _334  and  _336
REMARK  139  A    between atoms: _336  and  _337
REMARK  140  A    between atoms: _336  and  _339
REMARK  141  A    between atoms: _339  and  _340
REMARK  142  A    between atoms: _343  and  _345
REMARK  143  A    between atoms: _345  and  _346
REMARK  144  A    between atoms: _345  and  _348
REMARK  145  A    between atoms: _348  and  _349
REMARK  146  A    between atoms: _352  and  _354
REMARK  147  A    between atoms: _354  and  _355
REMARK  148  A    between atoms: _354  and  _357
REMARK  149  A    between atoms: _357  and  _358
REMARK  150  A    between atoms: _361  and  _363
REMARK  151  A    between atoms: _363  and  _364
REMARK  152  A    between atoms: _363  and  _366
REMARK  153  A    between atoms: _369  and  _371
REMARK  154  A    between atoms: _371  and  _372
REMARK  155  A    between atoms: _371  and  _374
REMARK  156  A    between atoms: _374  and  _375
REMARK  157  A    between atoms: _375  and  _376
REMARK  158  A    between atoms: _379  and  _381
REMARK  159  A    between atoms: _381  and  _382
REMARK  160  A    between atoms: _381  and  _384
REMARK  161  A    between atoms: _384  and  _385
REMARK  162  A    between atoms: _385  and  _386
REMARK  163  A    between atoms: _386  and  _387
REMARK  164  A    between atoms: _387  and  _388
REMARK  165  A    between atoms: _392  and  _394
REMARK  166  A    between atoms: _394  and  _395
REMARK  167  A    between atoms: _394  and  _397
REMARK  168  A    between atoms: _397  and  _398
REMARK  169  A    between atoms: _398  and  _399
REMARK  170  A    between atoms: _401  and  _403
REMARK  171  A    between atoms: _403  and  _404
REMARK  172  A    between atoms: _403  and  _406
REMARK  173  A    between atoms: _406  and  _407
REMARK  174  A    between atoms: _410  and  _412
REMARK  175  A    between atoms: _412  and  _413
REMARK  176  A    between atoms: _412  and  _415
REMARK  177  A    between atoms: _418  and  _420
REMARK  178  A    between atoms: _420  and  _421
REMARK  179  A    between atoms: _423  and  _425
REMARK  180  A    between atoms: _425  and  _426
REMARK  181  A    between atoms: _425  and  _428
REMARK  182  A    between atoms: _428  and  _429
REMARK  183  A    between atoms: _432  and  _434
REMARK  184  A    between atoms: _434  and  _435
REMARK  185  A    between atoms: _437  and  _439
REMARK  186  A    between atoms: _439  and  _440
REMARK  187  A    between atoms: _442  and  _444
REMARK  188  A    between atoms: _444  and  _445
REMARK  189  A    between atoms: _444  and  _447
REMARK  190  A    between atoms: _447  and  _448
REMARK  191  A    between atoms: _454  and  _456
REMARK  192  A    between atoms: _456  and  _457
REMARK  193  A    between atoms: _456  and  _459
REMARK  194  A    between atoms: _462  and  _464
REMARK  195  A    between atoms: _464  and  _465
REMARK  196  A    between atoms: _464  and  _467
REMARK  197  A    between atoms: _470  and  _472
REMARK  198  A    between atoms: _472  and  _473
REMARK  199  A    between atoms: _472  and  _475
REMARK  200  A    between atoms: _475  and  _476
REMARK  201  A    between atoms: _480  and  _481
REMARK  202  A    between atoms: _486  and  _488
REMARK  203  A    between atoms: _488  and  _489
REMARK  204  A    between atoms: _488  and  _491
REMARK  205  A    between atoms: _491  and  _492
REMARK  206  A    between atoms: _496  and  _497
REMARK  207  A    between atoms: _502  and  _504
REMARK  208  A    between atoms: _504  and  _505
REMARK  209  A    between atoms: _508  and  _510
REMARK  210  A    between atoms: _510  and  _511
REMARK  211  A    between atoms: _510  and  _513
REMARK  212  A    between atoms: _513  and  _514
REMARK  213  A    between atoms: _519  and  _521
REMARK  214  A    between atoms: _521  and  _522
REMARK  215  A    between atoms: _521  and  _524
REMARK  216  A    between atoms: _524  and  _525
REMARK  217  A    between atoms: _528  and  _530
REMARK  218  A    between atoms: _530  and  _531
REMARK  219  A    between atoms: _530  and  _533
REMARK  220  A    between atoms: _533  and  _534
REMARK  221  A    between atoms: _537  and  _539
REMARK  222  A    between atoms: _539  and  _540
REMARK  223  A    between atoms: _542  and  _544
REMARK  224  A    between atoms: _544  and  _545
REMARK  225  A    between atoms: _544  and  _547
REMARK  226  A    between atoms: _547  and  _548
REMARK  227  A    between atoms: _548  and  _549
REMARK  228  A    between atoms: _549  and  _550
REMARK                            x       y       z     vdW  Elec       q    Type
REMARK                         _______ _______ _______ _____ _____    ______ ____
ROOT
ATOM      1  O   HOH     1      22.755   5.894  25.924  0.00  0.00    +0.000 OA
ENDROOT
TORSDOF 0
REMARK  Name = ../refined-set-2016/3ekw/3ekw_pocket.pdb
REMARK  228 active torsions:
REMARK  status: ('A' for Active; 'I' for Inactive)
REMARK    1  A    between atoms: _1  and  _3
REMARK    2  A    between atoms: _3  and  _4
REMARK    3  A    between atoms: _3  and  _6
REMARK    4  A    between atoms: _6  and  _7
REMARK    5  A    between atoms: _7  and  _8
REMARK    6  A    between atoms: _8  and  _9
REMARK    7  A    between atoms: _18  and  _20
REMARK    8  A    between atoms: _20  and  _21
REMARK    9  A    between atoms: _20  and  _23
REMARK   10  A    between atoms: _23  and  _24
REMARK   11  A    between atoms: _27  and  _29
REMARK   12  A    between atoms: _29  and  _30
REMARK   13  A    between atoms: _29  and  _32
REMARK   14  A    between atoms: _32  and  _33
REMARK   15  A    between atoms: _36  and  _38
REMARK   16  A    between atoms: _38  and  _39
REMARK   17  A    between atoms: _38  and  _41
REMARK   18  A    between atoms: _41  and  _42
REMARK   19  A    between atoms: _45  and  _47
REMARK   20  A    between atoms: _47  and  _48
REMARK   21  A    between atoms: _47  and  _50
REMARK   22  A    between atoms: _50  and  _51
REMARK   23  A    between atoms: _54  and  _56
REMARK   24  A    between atoms: _56  and  _57
REMARK   25  A    between atoms: _59  and  _61
REMARK   26  A    between atoms: _61  and  _62
REMARK   27  A    between atoms: _65  and  _67
REMARK   28  A    between atoms: _67  and  _68
REMARK   29  A    between atoms: _67  and  _70
REMARK   30  A    between atoms: _70  and  _71
REMARK   31  A    between atoms: _74  and  _76
REMARK   32  A    between atoms: _76  and  _77
REMARK   33  A    between atoms: _76  and  _79
REMARK   34  A    between atoms: _79  and  _80
REMARK   35  A    between atoms: _83  and  _85
REMARK   36  A    between atoms: _85  and  _86
REMARK   37  A    between atoms: _85  and  _88
REMARK   38  A    between atoms: _88  and  _89
REMARK   39  A    between atoms: _92  and  _94
REMARK   40  A    between atoms: _94  and  _95
REMARK   41  A    between atoms: _94  and  _97
REMARK   42  A    between atoms: _100  and  _102
REMARK   43  A    between atoms: _102  and  _103
REMARK   44  A    between atoms: _102  and  _105
REMARK   45  A    between atoms: _105  and  _106
REMARK   46  A    between atoms: _106  and  _107
REMARK   47  A    between atoms: _107  and  _108
REMARK   48  A    between atoms: _108  and  _109
REMARK   49  A    between atoms: _113  and  _115
REMARK   50  A    between atoms: _115  and  _116
REMARK   51  A    between atoms: _115  and  _118
REMARK   52  A    between atoms: _118  and  _119
REMARK   53  A    between atoms: _119  and  _120
REMARK   54  A    between atoms: _122  and  _124
REMARK   55  A    between atoms: _124  and  _125
REMARK   56  A    between atoms: _124  and  _127
REMARK   57  A    between atoms: _127  and  _128
REMARK   58  A    between atoms: _131  and  _133
REMARK   59  A    between atoms: _133  and  _134
REMARK   60  A    between atoms: _133  and  _136
REMARK   61  A    between atoms: _139  and  _141
REMARK   62  A    between atoms: _141  and  _142
REMARK   63  A    between atoms: _144  and  _146
REMARK   64  A    between atoms: _146  and  _147
REMARK   65  A    between atoms: _146  and  _149
REMARK   66  A    between atoms: _149  and  _150
REMARK   67  A    between atoms: _153  and  _155
REMARK   68  A    between atoms: _155  and  _156
REMARK   69  A    between atoms: _158  and  _160
REMARK   70  A    between atoms: _160  and  _161
REMARK   71  A    between atoms: _163  and  _165
REMARK   72  A    between atoms: _165  and  _166
REMARK   73  A    between atoms: _165  and  _168
REMARK   74  A    between atoms: _171  and  _173
REMARK   75  A    between atoms: _173  and  _174
REMARK   76  A    between atoms: _173  and  _176
REMARK   77  A    between atoms: _179  and  _181
REMARK   78  A    between atoms: _181  and  _182
REMARK   79  A    between atoms: _181  and  _184
REMARK   80  A    between atoms: _184  and  _185
REMARK   81  A    between atoms: _188  and  _190
REMARK   82  A    between atoms: _190  and  _191
REMARK   83  A    between atoms: _190  and  _193
REMARK   84  A    between atoms: _193  and  _194
REMARK   85  A    between atoms: _198  and  _199
REMARK   86  A    between atoms: _204  and  _206
REMARK   87  A    between atoms: _206  and  _207
REMARK   88  A    between atoms: _210  and  _212
REMARK   89  A    between atoms: _212  and  _213
REMARK   90  A    between atoms: _212  and  _215
REMARK   91  A    between atoms: _215  and  _216
REMARK   92  A    between atoms: _221  and  _223
REMARK   93  A    between atoms: _223  and  _224
REMARK   94  A    between atoms: _223  and  _226
REMARK   95  A    between atoms: _226  and  _227
REMARK   96  A    between atoms: _230  and  _232
REMARK   97  A    between atoms: _232  and  _233
REMARK   98  A    between atoms: _232  and  _235
REMARK   99  A    between atoms: _235  and  _236
REMARK  100  A    between atoms: _239  and  _241
REMARK  101  A    between atoms: _241  and  _242
REMARK  102  A    between atoms: _244  and  _246
REMARK  103  A    between atoms: _246  and  _247
REMARK  104  A    between atoms: _246  and  _249
REMARK  105  A    between atoms: _249  and  _250
REMARK  106  A    between atoms: _250  and  _251
REMARK  107  A    between atoms: _251  and  _252
REMARK  108  A    between atoms: _261  and  _263
REMARK  109  A    between atoms: _263  and  _264
REMARK  110  A    between atoms: _263  and  _266
REMARK  111  A    between atoms: _266  and  _267
REMARK  112  A    between atoms: _267  and  _268
REMARK  113  A    between atoms: _268  and  _269
REMARK  114  A    between atoms: _278  and  _280
REMARK  115  A    between atoms: _280  and  _281
REMARK  116  A    between atoms: _280  and  _283
REMARK  117  A    between atoms: _283  and  _284
REMARK  118  A    between atoms: _287  and  _289
REMARK  119  A    between atoms: _289  and  _290
REMARK  120  A    between atoms: _289  and  _292
REMARK  121  A    between atoms: _292  and  _293
REMARK  122  A    between atoms: _296  and  _298
REMARK  123  A    between atoms: _298  and  _299
REMARK  124  A    between atoms: _298  and  _301
REMARK  125  A    between atoms: _301  and  _302
REMARK  126  A    between atoms: _305  and  _307
REMARK  127  A    between atoms: _307  and  _308
REMARK  128  A    between atoms: _307  and  _310
REMARK  129  A    between atoms: _310  and  _311
REMARK  130  A    between atoms: _314  and  _316
REMARK  131  A    between atoms: _316  and  _317
REMARK  132  A    between atoms: _316  and  _319
REMARK  133  A    between atoms: _319  and  _320
REMARK  134  A    between atoms: _323  and  _325
REMARK  135  A    between atoms: _325  and  _326
REMARK  136  A    between atoms: _328  and  _330
REMARK  137  A    between atoms: _330  and  _331
REMARK  138  A    between atoms: _334  and  _336
REMARK  139  A    between atoms: _336  and  _337
REMARK  140  A    between atoms: _336  and  _339
REMARK  141  A    between atoms: _339  and  _340
REMARK  142  A    between atoms: _343  and  _345
REMARK  143  A    between atoms: _345  and  _346
REMARK  144  A    between atoms: _345  and  _348
REMARK  145  A    between atoms: _348  and  _349
REMARK  146  A    between atoms: _352  and  _354
REMARK  147  A    between atoms: _354  and  _355
REMARK  148  A    between atoms: _354  and  _357
REMARK  149  A    between atoms: _357  and  _358
REMARK  150  A    between atoms: _361  and  _363
REMARK  151  A    between atoms: _363  and  _364
REMARK  152  A    between atoms: _363  and  _366
REMARK  153  A    between atoms: _369  and  _371
REMARK  154  A    between atoms: _371  and  _372
REMARK  155  A    between atoms: _371  and  _374
REMARK  156  A    between atoms: _374  and  _375
REMARK  157  A    between atoms: _375  and  _376
REMARK  158  A    between atoms: _379  and  _381
REMARK  159  A    between atoms: _381  and  _382
REMARK  160  A    between atoms: _381  and  _384
REMARK  161  A    between atoms: _384  and  _385
REMARK  162  A    between atoms: _385  and  _386
REMARK  163  A    between atoms: _386  and  _387
REMARK  164  A    between atoms: _387  and  _388
REMARK  165  A    between atoms: _392  and  _394
REMARK  166  A    between atoms: _394  and  _395
REMARK  167  A    between atoms: _394  and  _397
REMARK  168  A    between atoms: _397  and  _398
REMARK  169  A    between atoms: _398  and  _399
REMARK  170  A    between atoms: _401  and  _403
REMARK  171  A    between atoms: _403  and  _404
REMARK  172  A    between atoms: _403  and  _406
REMARK  173  A    between atoms: _406  and  _407
REMARK  174  A    between atoms: _410  and  _412
REMARK  175  A    between atoms: _412  and  _413
REMARK  176  A    between atoms: _412  and  _415
REMARK  177  A    between atoms: _418  and  _420
REMARK  178  A    between atoms: _420  and  _421
REMARK  179  A    between atoms: _423  and  _425
REMARK  180  A    between atoms: _425  and  _426
REMARK  181  A    between atoms: _425  and  _428
REMARK  182  A    between atoms: _428  and  _429
REMARK  183  A    between atoms: _432  and  _434
REMARK  184  A    between atoms: _434  and  _435
REMARK  185  A    between atoms: _437  and  _439
REMARK  186  A    between atoms: _439  and  _440
REMARK  187  A    between atoms: _442  and  _444
REMARK  188  A    between atoms: _444  and  _445
REMARK  189  A    between atoms: _444  and  _447
REMARK  190  A    between atoms: _447  and  _448
REMARK  191  A    between atoms: _454  and  _456
REMARK  192  A    between atoms: _456  and  _457
REMARK  193  A    between atoms: _456  and  _459
REMARK  194  A    between atoms: _462  and  _464
REMARK  195  A    between atoms: _464  and  _465
REMARK  196  A    between atoms: _464  and  _467
REMARK  197  A    between atoms: _470  and  _472
REMARK  198  A    between atoms: _472  and  _473
REMARK  199  A    between atoms: _472  and  _475
REMARK  200  A    between atoms: _475  and  _476
REMARK  201  A    between atoms: _480  and  _481
REMARK  202  A    between atoms: _486  and  _488
REMARK  203  A    between atoms: _488  and  _489
REMARK  204  A    between atoms: _488  and  _491
REMARK  205  A    between atoms: _491  and  _492
REMARK  206  A    between atoms: _496  and  _497
REMARK  207  A    between atoms: _502  and  _504
REMARK  208  A    between atoms: _504  and  _505
REMARK  209  A    between atoms: _508  and  _510
REMARK  210  A    between atoms: _510  and  _511
REMARK  211  A    between atoms: _510  and  _513
REMARK  212  A    between atoms: _513  and  _514
REMARK  213  A    between atoms: _519  and  _521
REMARK  214  A    between atoms: _521  and  _522
REMARK  215  A    between atoms: _521  and  _524
REMARK  216  A    between atoms: _524  and  _525
REMARK  217  A    between atoms: _528  and  _530
REMARK  218  A    between atoms: _530  and  _531
REMARK  219  A    between atoms: _530  and  _533
REMARK  220  A    between atoms: _533  and  _534
REMARK  221  A    between atoms: _537  and  _539
REMARK  222  A    between atoms: _539  and  _540
REMARK  223  A    between atoms: _542  and  _544
REMARK  224  A    between atoms: _544  and  _545
REMARK  225  A    between atoms: _544  and  _547
REMARK  226  A    between atoms: _547  and  _548
REMARK  227  A    between atoms: _548  and  _549
REMARK  228  A    between atoms: _549  and  _550
REMARK                            x       y       z     vdW  Elec       q    Type
REMARK                         _______ _______ _______ _____ _____    ______ ____
ROOT
ATOM      1  O   HOH     1      26.617  10.811  17.711  0.00  0.00    +0.000 OA
ENDROOT
TORSDOF 0
REMARK  Name = ../refined-set-2016/3ekw/3ekw_pocket.pdb
REMARK  228 active torsions:
REMARK  status: ('A' for Active; 'I' for Inactive)
REMARK    1  A    between atoms: _1  and  _3
REMARK    2  A    between atoms: _3  and  _4
REMARK    3  A    between atoms: _3  and  _6
REMARK    4  A    between atoms: _6  and  _7
REMARK    5  A    between atoms: _7  and  _8
REMARK    6  A    between atoms: _8  and  _9
REMARK    7  A    between atoms: _18  and  _20
REMARK    8  A    between atoms: _20  and  _21
REMARK    9  A    between atoms: _20  and  _23
REMARK   10  A    between atoms: _23  and  _24
REMARK   11  A    between atoms: _27  and  _29
REMARK   12  A    between atoms: _29  and  _30
REMARK   13  A    between atoms: _29  and  _32
REMARK   14  A    between atoms: _32  and  _33
REMARK   15  A    between atoms: _36  and  _38
REMARK   16  A    between atoms: _38  and  _39
REMARK   17  A    between atoms: _38  and  _41
REMARK   18  A    between atoms: _41  and  _42
REMARK   19  A    between atoms: _45  and  _47
REMARK   20  A    between atoms: _47  and  _48
REMARK   21  A    between atoms: _47  and  _50
REMARK   22  A    between atoms: _50  and  _51
REMARK   23  A    between atoms: _54  and  _56
REMARK   24  A    between atoms: _56  and  _57
REMARK   25  A    between atoms: _59  and  _61
REMARK   26  A    between atoms: _61  and  _62
REMARK   27  A    between atoms: _65  and  _67
REMARK   28  A    between atoms: _67  and  _68
REMARK   29  A    between atoms: _67  and  _70
REMARK   30  A    between atoms: _70  and  _71
REMARK   31  A    between atoms: _74  and  _76
REMARK   32  A    between atoms: _76  and  _77
REMARK   33  A    between atoms: _76  and  _79
REMARK   34  A    between atoms: _79  and  _80
REMARK   35  A    between atoms: _83  and  _85
REMARK   36  A    between atoms: _85  and  _86
REMARK   37  A    between atoms: _85  and  _88
REMARK   38  A    between atoms: _88  and  _89
REMARK   39  A    between atoms: _92  and  _94
REMARK   40  A    between atoms: _94  and  _95
REMARK   41  A    between atoms: _94  and  _97
REMARK   42  A    between atoms: _100  and  _102
REMARK   43  A    between atoms: _102  and  _103
REMARK   44  A    between atoms: _102  and  _105
REMARK   45  A    between atoms: _105  and  _106
REMARK   46  A    between atoms: _106  and  _107
REMARK   47  A    between atoms: _107  and  _108
REMARK   48  A    between atoms: _108  and  _109
REMARK   49  A    between atoms: _113  and  _115
REMARK   50  A    between atoms: _115  and  _116
REMARK   51  A    between atoms: _115  and  _118
REMARK   52  A    between atoms: _118  and  _119
REMARK   53  A    between atoms: _119  and  _120
REMARK   54  A    between atoms: _122  and  _124
REMARK   55  A    between atoms: _124  and  _125
REMARK   56  A    between atoms: _124  and  _127
REMARK   57  A    between atoms: _127  and  _128
REMARK   58  A    between atoms: _131  and  _133
REMARK   59  A    between atoms: _133  and  _134
REMARK   60  A    between atoms: _133  and  _136
REMARK   61  A    between atoms: _139  and  _141
REMARK   62  A    between atoms: _141  and  _142
REMARK   63  A    between atoms: _144  and  _146
REMARK   64  A    between atoms: _146  and  _147
REMARK   65  A    between atoms: _146  and  _149
REMARK   66  A    between atoms: _149  and  _150
REMARK   67  A    between atoms: _153  and  _155
REMARK   68  A    between atoms: _155  and  _156
REMARK   69  A    between atoms: _158  and  _160
REMARK   70  A    between atoms: _160  and  _161
REMARK   71  A    between atoms: _163  and  _165
REMARK   72  A    between atoms: _165  and  _166
REMARK   73  A    between atoms: _165  and  _168
REMARK   74  A    between atoms: _171  and  _173
REMARK   75  A    between atoms: _173  and  _174
REMARK   76  A    between atoms: _173  and  _176
REMARK   77  A    between atoms: _179  and  _181
REMARK   78  A    between atoms: _181  and  _182
REMARK   79  A    between atoms: _181  and  _184
REMARK   80  A    between atoms: _184  and  _185
REMARK   81  A    between atoms: _188  and  _190
REMARK   82  A    between atoms: _190  and  _191
REMARK   83  A    between atoms: _190  and  _193
REMARK   84  A    between atoms: _193  and  _194
REMARK   85  A    between atoms: _198  and  _199
REMARK   86  A    between atoms: _204  and  _206
REMARK   87  A    between atoms: _206  and  _207
REMARK   88  A    between atoms: _210  and  _212
REMARK   89  A    between atoms: _212  and  _213
REMARK   90  A    between atoms: _212  and  _215
REMARK   91  A    between atoms: _215  and  _216
REMARK   92  A    between atoms: _221  and  _223
REMARK   93  A    between atoms: _223  and  _224
REMARK   94  A    between atoms: _223  and  _226
REMARK   95  A    between atoms: _226  and  _227
REMARK   96  A    between atoms: _230  and  _232
REMARK   97  A    between atoms: _232  and  _233
REMARK   98  A    between atoms: _232  and  _235
REMARK   99  A    between atoms: _235  and  _236
REMARK  100  A    between atoms: _239  and  _241
REMARK  101  A    between atoms: _241  and  _242
REMARK  102  A    between atoms: _244  and  _246
REMARK  103  A    between atoms: _246  and  _247
REMARK  104  A    between atoms: _246  and  _249
REMARK  105  A    between atoms: _249  and  _250
REMARK  106  A    between atoms: _250  and  _251
REMARK  107  A    between atoms: _251  and  _252
REMARK  108  A    between atoms: _261  and  _263
REMARK  109  A    between atoms: _263  and  _264
REMARK  110  A    between atoms: _263  and  _266
REMARK  111  A    between atoms: _266  and  _267
REMARK  112  A    between atoms: _267  and  _268
REMARK  113  A    between atoms: _268  and  _269
REMARK  114  A    between atoms: _278  and  _280
REMARK  115  A    between atoms: _280  and  _281
REMARK  116  A    between atoms: _280  and  _283
REMARK  117  A    between atoms: _283  and  _284
REMARK  118  A    between atoms: _287  and  _289
REMARK  119  A    between atoms: _289  and  _290
REMARK  120  A    between atoms: _289  and  _292
REMARK  121  A    between atoms: _292  and  _293
REMARK  122  A    between atoms: _296  and  _298
REMARK  123  A    between atoms: _298  and  _299
REMARK  124  A    between atoms: _298  and  _301
REMARK  125  A    between atoms: _301  and  _302
REMARK  126  A    between atoms: _305  and  _307
REMARK  127  A    between atoms: _307  and  _308
REMARK  128  A    between atoms: _307  and  _310
REMARK  129  A    between atoms: _310  and  _311
REMARK  130  A    between atoms: _314  and  _316
REMARK  131  A    between atoms: _316  and  _317
REMARK  132  A    between atoms: _316  and  _319
REMARK  133  A    between atoms: _319  and  _320
REMARK  134  A    between atoms: _323  and  _325
REMARK  135  A    between atoms: _325  and  _326
REMARK  136  A    between atoms: _328  and  _330
REMARK  137  A    between atoms: _330  and  _331
REMARK  138  A    between atoms: _334  and  _336
REMARK  139  A    between atoms: _336  and  _337
REMARK  140  A    between atoms: _336  and  _339
REMARK  141  A    between atoms: _339  and  _340
REMARK  142  A    between atoms: _343  and  _345
REMARK  143  A    between atoms: _345  and  _346
REMARK  144  A    between atoms: _345  and  _348
REMARK  145  A    between atoms: _348  and  _349
REMARK  146  A    between atoms: _352  and  _354
REMARK  147  A    between atoms: _354  and  _355
REMARK  148  A    between atoms: _354  and  _357
REMARK  149  A    between atoms: _357  and  _358
REMARK  150  A    between atoms: _361  and  _363
REMARK  151  A    between atoms: _363  and  _364
REMARK  152  A    between atoms: _363  and  _366
REMARK  153  A    between atoms: _369  and  _371
REMARK  154  A    between atoms: _371  and  _372
REMARK  155  A    between atoms: _371  and  _374
REMARK  156  A    between atoms: _374  and  _375
REMARK  157  A    between atoms: _375  and  _376
REMARK  158  A    between atoms: _379  and  _381
REMARK  159  A    between atoms: _381  and  _382
REMARK  160  A    between atoms: _381  and  _384
REMARK  161  A    between atoms: _384  and  _385
REMARK  162  A    between atoms: _385  and  _386
REMARK  163  A    between atoms: _386  and  _387
REMARK  164  A    between atoms: _387  and  _388
REMARK  165  A    between atoms: _392  and  _394
REMARK  166  A    between atoms: _394  and  _395
REMARK  167  A    between atoms: _394  and  _397
REMARK  168  A    between atoms: _397  and  _398
REMARK  169  A    between atoms: _398  and  _399
REMARK  170  A    between atoms: _401  and  _403
REMARK  171  A    between atoms: _403  and  _404
REMARK  172  A    between atoms: _403  and  _406
REMARK  173  A    between atoms: _406  and  _407
REMARK  174  A    between atoms: _410  and  _412
REMARK  175  A    between atoms: _412  and  _413
REMARK  176  A    between atoms: _412  and  _415
REMARK  177  A    between atoms: _418  and  _420
REMARK  178  A    between atoms: _420  and  _421
REMARK  179  A    between atoms: _423  and  _425
REMARK  180  A    between atoms: _425  and  _426
REMARK  181  A    between atoms: _425  and  _428
REMARK  182  A    between atoms: _428  and  _429
REMARK  183  A    between atoms: _432  and  _434
REMARK  184  A    between atoms: _434  and  _435
REMARK  185  A    between atoms: _437  and  _439
REMARK  186  A    between atoms: _439  and  _440
REMARK  187  A    between atoms: _442  and  _444
REMARK  188  A    between atoms: _444  and  _445
REMARK  189  A    between atoms: _444  and  _447
REMARK  190  A    between atoms: _447  and  _448
REMARK  191  A    between atoms: _454  and  _456
REMARK  192  A    between atoms: _456  and  _457
REMARK  193  A    between atoms: _456  and  _459
REMARK  194  A    between atoms: _462  and  _464
REMARK  195  A    between atoms: _464  and  _465
REMARK  196  A    between atoms: _464  and  _467
REMARK  197  A    between atoms: _470  and  _472
REMARK  198  A    between atoms: _472  and  _473
REMARK  199  A    between atoms: _472  and  _475
REMARK  200  A    between atoms: _475  and  _476
REMARK  201  A    between atoms: _480  and  _481
REMARK  202  A    between atoms: _486  and  _488
REMARK  203  A    between atoms: _488  and  _489
REMARK  204  A    between atoms: _488  and  _491
REMARK  205  A    between atoms: _491  and  _492
REMARK  206  A    between atoms: _496  and  _497
REMARK  207  A    between atoms: _502  and  _504
REMARK  208  A    between atoms: _504  and  _505
REMARK  209  A    between atoms: _508  and  _510
REMARK  210  A    between atoms: _510  and  _511
REMARK  211  A    between atoms: _510  and  _513
REMARK  212  A    between atoms: _513  and  _514
REMARK  213  A    between atoms: _519  and  _521
REMARK  214  A    between atoms: _521  and  _522
REMARK  215  A    between atoms: _521  and  _524
REMARK  216  A    between atoms: _524  and  _525
REMARK  217  A    between atoms: _528  and  _530
REMARK  218  A    between atoms: _530  and  _531
REMARK  219  A    between atoms: _530  and  _533
REMARK  220  A    between atoms: _533  and  _534
REMARK  221  A    between atoms: _537  and  _539
REMARK  222  A    between atoms: _539  and  _540
REMARK  223  A    between atoms: _542  and  _544
REMARK  224  A    between atoms: _544  and  _545
REMARK  225  A    between atoms: _544  and  _547
REMARK  226  A    between atoms: _547  and  _548
REMARK  227  A    between atoms: _548  and  _549
REMARK  228  A    between atoms: _549  and  _550
REMARK                            x       y       z     vdW  Elec       q    Type
REMARK                         _______ _______ _______ _____ _____    ______ ____
ROOT
ATOM      1  O   HOH     1      16.055 -10.146  11.000  0.00  0.00    +0.000 OA
ENDROOT
TORSDOF 0
REMARK  Name = ../refined-set-2016/3ekw/3ekw_pocket.pdb
REMARK  228 active torsions:
REMARK  status: ('A' for Active; 'I' for Inactive)
REMARK    1  A    between atoms: _1  and  _3
REMARK    2  A    between atoms: _3  and  _4
REMARK    3  A    between atoms: _3  and  _6
REMARK    4  A    between atoms: _6  and  _7
REMARK    5  A    between atoms: _7  and  _8
REMARK    6  A    between atoms: _8  and  _9
REMARK    7  A    between atoms: _18  and  _20
REMARK    8  A    between atoms: _20  and  _21
REMARK    9  A    between atoms: _20  and  _23
REMARK   10  A    between atoms: _23  and  _24
REMARK   11  A    between atoms: _27  and  _29
REMARK   12  A    between atoms: _29  and  _30
REMARK   13  A    between atoms: _29  and  _32
REMARK   14  A    between atoms: _32  and  _33
REMARK   15  A    between atoms: _36  and  _38
REMARK   16  A    between atoms: _38  and  _39
REMARK   17  A    between atoms: _38  and  _41
REMARK   18  A    between atoms: _41  and  _42
REMARK   19  A    between atoms: _45  and  _47
REMARK   20  A    between atoms: _47  and  _48
REMARK   21  A    between atoms: _47  and  _50
REMARK   22  A    between atoms: _50  and  _51
REMARK   23  A    between atoms: _54  and  _56
REMARK   24  A    between atoms: _56  and  _57
REMARK   25  A    between atoms: _59  and  _61
REMARK   26  A    between atoms: _61  and  _62
REMARK   27  A    between atoms: _65  and  _67
REMARK   28  A    between atoms: _67  and  _68
REMARK   29  A    between atoms: _67  and  _70
REMARK   30  A    between atoms: _70  and  _71
REMARK   31  A    between atoms: _74  and  _76
REMARK   32  A    between atoms: _76  and  _77
REMARK   33  A    between atoms: _76  and  _79
REMARK   34  A    between atoms: _79  and  _80
REMARK   35  A    between atoms: _83  and  _85
REMARK   36  A    between atoms: _85  and  _86
REMARK   37  A    between atoms: _85  and  _88
REMARK   38  A    between atoms: _88  and  _89
REMARK   39  A    between atoms: _92  and  _94
REMARK   40  A    between atoms: _94  and  _95
REMARK   41  A    between atoms: _94  and  _97
REMARK   42  A    between atoms: _100  and  _102
REMARK   43  A    between atoms: _102  and  _103
REMARK   44  A    between atoms: _102  and  _105
REMARK   45  A    between atoms: _105  and  _106
REMARK   46  A    between atoms: _106  and  _107
REMARK   47  A    between atoms: _107  and  _108
REMARK   48  A    between atoms: _108  and  _109
REMARK   49  A    between atoms: _113  and  _115
REMARK   50  A    between atoms: _115  and  _116
REMARK   51  A    between atoms: _115  and  _118
REMARK   52  A    between atoms: _118  and  _119
REMARK   53  A    between atoms: _119  and  _120
REMARK   54  A    between atoms: _122  and  _124
REMARK   55  A    between atoms: _124  and  _125
REMARK   56  A    between atoms: _124  and  _127
REMARK   57  A    between atoms: _127  and  _128
REMARK   58  A    between atoms: _131  and  _133
REMARK   59  A    between atoms: _133  and  _134
REMARK   60  A    between atoms: _133  and  _136
REMARK   61  A    between atoms: _139  and  _141
REMARK   62  A    between atoms: _141  and  _142
REMARK   63  A    between atoms: _144  and  _146
REMARK   64  A    between atoms: _146  and  _147
REMARK   65  A    between atoms: _146  and  _149
REMARK   66  A    between atoms: _149  and  _150
REMARK   67  A    between atoms: _153  and  _155
REMARK   68  A    between atoms: _155  and  _156
REMARK   69  A    between atoms: _158  and  _160
REMARK   70  A    between atoms: _160  and  _161
REMARK   71  A    between atoms: _163  and  _165
REMARK   72  A    between atoms: _165  and  _166
REMARK   73  A    between atoms: _165  and  _168
REMARK   74  A    between atoms: _171  and  _173
REMARK   75  A    between atoms: _173  and  _174
REMARK   76  A    between atoms: _173  and  _176
REMARK   77  A    between atoms: _179  and  _181
REMARK   78  A    between atoms: _181  and  _182
REMARK   79  A    between atoms: _181  and  _184
REMARK   80  A    between atoms: _184  and  _185
REMARK   81  A    between atoms: _188  and  _190
REMARK   82  A    between atoms: _190  and  _191
REMARK   83  A    between atoms: _190  and  _193
REMARK   84  A    between atoms: _193  and  _194
REMARK   85  A    between atoms: _198  and  _199
REMARK   86  A    between atoms: _204  and  _206
REMARK   87  A    between atoms: _206  and  _207
REMARK   88  A    between atoms: _210  and  _212
REMARK   89  A    between atoms: _212  and  _213
REMARK   90  A    between atoms: _212  and  _215
REMARK   91  A    between atoms: _215  and  _216
REMARK   92  A    between atoms: _221  and  _223
REMARK   93  A    between atoms: _223  and  _224
REMARK   94  A    between atoms: _223  and  _226
REMARK   95  A    between atoms: _226  and  _227
REMARK   96  A    between atoms: _230  and  _232
REMARK   97  A    between atoms: _232  and  _233
REMARK   98  A    between atoms: _232  and  _235
REMARK   99  A    between atoms: _235  and  _236
REMARK  100  A    between atoms: _239  and  _241
REMARK  101  A    between atoms: _241  and  _242
REMARK  102  A    between atoms: _244  and  _246
REMARK  103  A    between atoms: _246  and  _247
REMARK  104  A    between atoms: _246  and  _249
REMARK  105  A    between atoms: _249  and  _250
REMARK  106  A    between atoms: _250  and  _251
REMARK  107  A    between atoms: _251  and  _252
REMARK  108  A    between atoms: _261  and  _263
REMARK  109  A    between atoms: _263  and  _264
REMARK  110  A    between atoms: _263  and  _266
REMARK  111  A    between atoms: _266  and  _267
REMARK  112  A    between atoms: _267  and  _268
REMARK  113  A    between atoms: _268  and  _269
REMARK  114  A    between atoms: _278  and  _280
REMARK  115  A    between atoms: _280  and  _281
REMARK  116  A    between atoms: _280  and  _283
REMARK  117  A    between atoms: _283  and  _284
REMARK  118  A    between atoms: _287  and  _289
REMARK  119  A    between atoms: _289  and  _290
REMARK  120  A    between atoms: _289  and  _292
REMARK  121  A    between atoms: _292  and  _293
REMARK  122  A    between atoms: _296  and  _298
REMARK  123  A    between atoms: _298  and  _299
REMARK  124  A    between atoms: _298  and  _301
REMARK  125  A    between atoms: _301  and  _302
REMARK  126  A    between atoms: _305  and  _307
REMARK  127  A    between atoms: _307  and  _308
REMARK  128  A    between atoms: _307  and  _310
REMARK  129  A    between atoms: _310  and  _311
REMARK  130  A    between atoms: _314  and  _316
REMARK  131  A    between atoms: _316  and  _317
REMARK  132  A    between atoms: _316  and  _319
REMARK  133  A    between atoms: _319  and  _320
REMARK  134  A    between atoms: _323  and  _325
REMARK  135  A    between atoms: _325  and  _326
REMARK  136  A    between atoms: _328  and  _330
REMARK  137  A    between atoms: _330  and  _331
REMARK  138  A    between atoms: _334  and  _336
REMARK  139  A    between atoms: _336  and  _337
REMARK  140  A    between atoms: _336  and  _339
REMARK  141  A    between atoms: _339  and  _340
REMARK  142  A    between atoms: _343  and  _345
REMARK  143  A    between atoms: _345  and  _346
REMARK  144  A    between atoms: _345  and  _348
REMARK  145  A    between atoms: _348  and  _349
REMARK  146  A    between atoms: _352  and  _354
REMARK  147  A    between atoms: _354  and  _355
REMARK  148  A    between atoms: _354  and  _357
REMARK  149  A    between atoms: _357  and  _358
REMARK  150  A    between atoms: _361  and  _363
REMARK  151  A    between atoms: _363  and  _364
REMARK  152  A    between atoms: _363  and  _366
REMARK  153  A    between atoms: _369  and  _371
REMARK  154  A    between atoms: _371  and  _372
REMARK  155  A    between atoms: _371  and  _374
REMARK  156  A    between atoms: _374  and  _375
REMARK  157  A    between atoms: _375  and  _376
REMARK  158  A    between atoms: _379  and  _381
REMARK  159  A    between atoms: _381  and  _382
REMARK  160  A    between atoms: _381  and  _384
REMARK  161  A    between atoms: _384  and  _385
REMARK  162  A    between atoms: _385  and  _386
REMARK  163  A    between atoms: _386  and  _387
REMARK  164  A    between atoms: _387  and  _388
REMARK  165  A    between atoms: _392  and  _394
REMARK  166  A    between atoms: _394  and  _395
REMARK  167  A    between atoms: _394  and  _397
REMARK  168  A    between atoms: _397  and  _398
REMARK  169  A    between atoms: _398  and  _399
REMARK  170  A    between atoms: _401  and  _403
REMARK  171  A    between atoms: _403  and  _404
REMARK  172  A    between atoms: _403  and  _406
REMARK  173  A    between atoms: _406  and  _407
REMARK  174  A    between atoms: _410  and  _412
REMARK  175  A    between atoms: _412  and  _413
REMARK  176  A    between atoms: _412  and  _415
REMARK  177  A    between atoms: _418  and  _420
REMARK  178  A    between atoms: _420  and  _421
REMARK  179  A    between atoms: _423  and  _425
REMARK  180  A    between atoms: _425  and  _426
REMARK  181  A    between atoms: _425  and  _428
REMARK  182  A    between atoms: _428  and  _429
REMARK  183  A    between atoms: _432  and  _434
REMARK  184  A    between atoms: _434  and  _435
REMARK  185  A    between atoms: _437  and  _439
REMARK  186  A    between atoms: _439  and  _440
REMARK  187  A    between atoms: _442  and  _444
REMARK  188  A    between atoms: _444  and  _445
REMARK  189  A    between atoms: _444  and  _447
REMARK  190  A    between atoms: _447  and  _448
REMARK  191  A    between atoms: _454  and  _456
REMARK  192  A    between atoms: _456  and  _457
REMARK  193  A    between atoms: _456  and  _459
REMARK  194  A    between atoms: _462  and  _464
REMARK  195  A    between atoms: _464  and  _465
REMARK  196  A    between atoms: _464  and  _467
REMARK  197  A    between atoms: _470  and  _472
REMARK  198  A    between atoms: _472  and  _473
REMARK  199  A    between atoms: _472  and  _475
REMARK  200  A    between atoms: _475  and  _476
REMARK  201  A    between atoms: _480  and  _481
REMARK  202  A    between atoms: _486  and  _488
REMARK  203  A    between atoms: _488  and  _489
REMARK  204  A    between atoms: _488  and  _491
REMARK  205  A    between atoms: _491  and  _492
REMARK  206  A    between atoms: _496  and  _497
REMARK  207  A    between atoms: _502  and  _504
REMARK  208  A    between atoms: _504  and  _505
REMARK  209  A    between atoms: _508  and  _510
REMARK  210  A    between atoms: _510  and  _511
REMARK  211  A    between atoms: _510  and  _513
REMARK  212  A    between atoms: _513  and  _514
REMARK  213  A    between atoms: _519  and  _521
REMARK  214  A    between atoms: _521  and  _522
REMARK  215  A    between atoms: _521  and  _524
REMARK  216  A    between atoms: _524  and  _525
REMARK  217  A    between atoms: _528  and  _530
REMARK  218  A    between atoms: _530  and  _531
REMARK  219  A    between atoms: _530  and  _533
REMARK  220  A    between atoms: _533  and  _534
REMARK  221  A    between atoms: _537  and  _539
REMARK  222  A    between atoms: _539  and  _540
REMARK  223  A    between atoms: _542  and  _544
REMARK  224  A    between atoms: _544  and  _545
REMARK  225  A    between atoms: _544  and  _547
REMARK  226  A    between atoms: _547  and  _548
REMARK  227  A    between atoms: _548  and  _549
REMARK  228  A    between atoms: _549  and  _550
REMARK                            x       y       z     vdW  Elec       q    Type
REMARK                         _______ _______ _______ _____ _____    ______ ____
ROOT
ATOM      1  O   HOH     1      17.751  14.125  19.142  0.00  0.00    +0.000 OA
ENDROOT
TORSDOF 0
REMARK  Name = ../refined-set-2016/3ekw/3ekw_pocket.pdb
REMARK  228 active torsions:
REMARK  status: ('A' for Active; 'I' for Inactive)
REMARK    1  A    between atoms: _1  and  _3
REMARK    2  A    between atoms: _3  and  _4
REMARK    3  A    between atoms: _3  and  _6
REMARK    4  A    between atoms: _6  and  _7
REMARK    5  A    between atoms: _7  and  _8
REMARK    6  A    between atoms: _8  and  _9
REMARK    7  A    between atoms: _18  and  _20
REMARK    8  A    between atoms: _20  and  _21
REMARK    9  A    between atoms: _20  and  _23
REMARK   10  A    between atoms: _23  and  _24
REMARK   11  A    between atoms: _27  and  _29
REMARK   12  A    between atoms: _29  and  _30
REMARK   13  A    between atoms: _29  and  _32
REMARK   14  A    between atoms: _32  and  _33
REMARK   15  A    between atoms: _36  and  _38
REMARK   16  A    between atoms: _38  and  _39
REMARK   17  A    between atoms: _38  and  _41
REMARK   18  A    between atoms: _41  and  _42
REMARK   19  A    between atoms: _45  and  _47
REMARK   20  A    between atoms: _47  and  _48
REMARK   21  A    between atoms: _47  and  _50
REMARK   22  A    between atoms: _50  and  _51
REMARK   23  A    between atoms: _54  and  _56
REMARK   24  A    between atoms: _56  and  _57
REMARK   25  A    between atoms: _59  and  _61
REMARK   26  A    between atoms: _61  and  _62
REMARK   27  A    between atoms: _65  and  _67
REMARK   28  A    between atoms: _67  and  _68
REMARK   29  A    between atoms: _67  and  _70
REMARK   30  A    between atoms: _70  and  _71
REMARK   31  A    between atoms: _74  and  _76
REMARK   32  A    between atoms: _76  and  _77
REMARK   33  A    between atoms: _76  and  _79
REMARK   34  A    between atoms: _79  and  _80
REMARK   35  A    between atoms: _83  and  _85
REMARK   36  A    between atoms: _85  and  _86
REMARK   37  A    between atoms: _85  and  _88
REMARK   38  A    between atoms: _88  and  _89
REMARK   39  A    between atoms: _92  and  _94
REMARK   40  A    between atoms: _94  and  _95
REMARK   41  A    between atoms: _94  and  _97
REMARK   42  A    between atoms: _100  and  _102
REMARK   43  A    between atoms: _102  and  _103
REMARK   44  A    between atoms: _102  and  _105
REMARK   45  A    between atoms: _105  and  _106
REMARK   46  A    between atoms: _106  and  _107
REMARK   47  A    between atoms: _107  and  _108
REMARK   48  A    between atoms: _108  and  _109
REMARK   49  A    between atoms: _113  and  _115
REMARK   50  A    between atoms: _115  and  _116
REMARK   51  A    between atoms: _115  and  _118
REMARK   52  A    between atoms: _118  and  _119
REMARK   53  A    between atoms: _119  and  _120
REMARK   54  A    between atoms: _122  and  _124
REMARK   55  A    between atoms: _124  and  _125
REMARK   56  A    between atoms: _124  and  _127
REMARK   57  A    between atoms: _127  and  _128
REMARK   58  A    between atoms: _131  and  _133
REMARK   59  A    between atoms: _133  and  _134
REMARK   60  A    between atoms: _133  and  _136
REMARK   61  A    between atoms: _139  and  _141
REMARK   62  A    between atoms: _141  and  _142
REMARK   63  A    between atoms: _144  and  _146
REMARK   64  A    between atoms: _146  and  _147
REMARK   65  A    between atoms: _146  and  _149
REMARK   66  A    between atoms: _149  and  _150
REMARK   67  A    between atoms: _153  and  _155
REMARK   68  A    between atoms: _155  and  _156
REMARK   69  A    between atoms: _158  and  _160
REMARK   70  A    between atoms: _160  and  _161
REMARK   71  A    between atoms: _163  and  _165
REMARK   72  A    between atoms: _165  and  _166
REMARK   73  A    between atoms: _165  and  _168
REMARK   74  A    between atoms: _171  and  _173
REMARK   75  A    between atoms: _173  and  _174
REMARK   76  A    between atoms: _173  and  _176
REMARK   77  A    between atoms: _179  and  _181
REMARK   78  A    between atoms: _181  and  _182
REMARK   79  A    between atoms: _181  and  _184
REMARK   80  A    between atoms: _184  and  _185
REMARK   81  A    between atoms: _188  and  _190
REMARK   82  A    between atoms: _190  and  _191
REMARK   83  A    between atoms: _190  and  _193
REMARK   84  A    between atoms: _193  and  _194
REMARK   85  A    between atoms: _198  and  _199
REMARK   86  A    between atoms: _204  and  _206
REMARK   87  A    between atoms: _206  and  _207
REMARK   88  A    between atoms: _210  and  _212
REMARK   89  A    between atoms: _212  and  _213
REMARK   90  A    between atoms: _212  and  _215
REMARK   91  A    between atoms: _215  and  _216
REMARK   92  A    between atoms: _221  and  _223
REMARK   93  A    between atoms: _223  and  _224
REMARK   94  A    between atoms: _223  and  _226
REMARK   95  A    between atoms: _226  and  _227
REMARK   96  A    between atoms: _230  and  _232
REMARK   97  A    between atoms: _232  and  _233
REMARK   98  A    between atoms: _232  and  _235
REMARK   99  A    between atoms: _235  and  _236
REMARK  100  A    between atoms: _239  and  _241
REMARK  101  A    between atoms: _241  and  _242
REMARK  102  A    between atoms: _244  and  _246
REMARK  103  A    between atoms: _246  and  _247
REMARK  104  A    between atoms: _246  and  _249
REMARK  105  A    between atoms: _249  and  _250
REMARK  106  A    between atoms: _250  and  _251
REMARK  107  A    between atoms: _251  and  _252
REMARK  108  A    between atoms: _261  and  _263
REMARK  109  A    between atoms: _263  and  _264
REMARK  110  A    between atoms: _263  and  _266
REMARK  111  A    between atoms: _266  and  _267
REMARK  112  A    between atoms: _267  and  _268
REMARK  113  A    between atoms: _268  and  _269
REMARK  114  A    between atoms: _278  and  _280
REMARK  115  A    between atoms: _280  and  _281
REMARK  116  A    between atoms: _280  and  _283
REMARK  117  A    between atoms: _283  and  _284
REMARK  118  A    between atoms: _287  and  _289
REMARK  119  A    between atoms: _289  and  _290
REMARK  120  A    between atoms: _289  and  _292
REMARK  121  A    between atoms: _292  and  _293
REMARK  122  A    between atoms: _296  and  _298
REMARK  123  A    between atoms: _298  and  _299
REMARK  124  A    between atoms: _298  and  _301
REMARK  125  A    between atoms: _301  and  _302
REMARK  126  A    between atoms: _305  and  _307
REMARK  127  A    between atoms: _307  and  _308
REMARK  128  A    between atoms: _307  and  _310
REMARK  129  A    between atoms: _310  and  _311
REMARK  130  A    between atoms: _314  and  _316
REMARK  131  A    between atoms: _316  and  _317
REMARK  132  A    between atoms: _316  and  _319
REMARK  133  A    between atoms: _319  and  _320
REMARK  134  A    between atoms: _323  and  _325
REMARK  135  A    between atoms: _325  and  _326
REMARK  136  A    between atoms: _328  and  _330
REMARK  137  A    between atoms: _330  and  _331
REMARK  138  A    between atoms: _334  and  _336
REMARK  139  A    between atoms: _336  and  _337
REMARK  140  A    between atoms: _336  and  _339
REMARK  141  A    between atoms: _339  and  _340
REMARK  142  A    between atoms: _343  and  _345
REMARK  143  A    between atoms: _345  and  _346
REMARK  144  A    between atoms: _345  and  _348
REMARK  145  A    between atoms: _348  and  _349
REMARK  146  A    between atoms: _352  and  _354
REMARK  147  A    between atoms: _354  and  _355
REMARK  148  A    between atoms: _354  and  _357
REMARK  149  A    between atoms: _357  and  _358
REMARK  150  A    between atoms: _361  and  _363
REMARK  151  A    between atoms: _363  and  _364
REMARK  152  A    between atoms: _363  and  _366
REMARK  153  A    between atoms: _369  and  _371
REMARK  154  A    between atoms: _371  and  _372
REMARK  155  A    between atoms: _371  and  _374
REMARK  156  A    between atoms: _374  and  _375
REMARK  157  A    between atoms: _375  and  _376
REMARK  158  A    between atoms: _379  and  _381
REMARK  159  A    between atoms: _381  and  _382
REMARK  160  A    between atoms: _381  and  _384
REMARK  161  A    between atoms: _384  and  _385
REMARK  162  A    between atoms: _385  and  _386
REMARK  163  A    between atoms: _386  and  _387
REMARK  164  A    between atoms: _387  and  _388
REMARK  165  A    between atoms: _392  and  _394
REMARK  166  A    between atoms: _394  and  _395
REMARK  167  A    between atoms: _394  and  _397
REMARK  168  A    between atoms: _397  and  _398
REMARK  169  A    between atoms: _398  and  _399
REMARK  170  A    between atoms: _401  and  _403
REMARK  171  A    between atoms: _403  and  _404
REMARK  172  A    between atoms: _403  and  _406
REMARK  173  A    between atoms: _406  and  _407
REMARK  174  A    between atoms: _410  and  _412
REMARK  175  A    between atoms: _412  and  _413
REMARK  176  A    between atoms: _412  and  _415
REMARK  177  A    between atoms: _418  and  _420
REMARK  178  A    between atoms: _420  and  _421
REMARK  179  A    between atoms: _423  and  _425
REMARK  180  A    between atoms: _425  and  _426
REMARK  181  A    between atoms: _425  and  _428
REMARK  182  A    between atoms: _428  and  _429
REMARK  183  A    between atoms: _432  and  _434
REMARK  184  A    between atoms: _434  and  _435
REMARK  185  A    between atoms: _437  and  _439
REMARK  186  A    between atoms: _439  and  _440
REMARK  187  A    between atoms: _442  and  _444
REMARK  188  A    between atoms: _444  and  _445
REMARK  189  A    between atoms: _444  and  _447
REMARK  190  A    between atoms: _447  and  _448
REMARK  191  A    between atoms: _454  and  _456
REMARK  192  A    between atoms: _456  and  _457
REMARK  193  A    between atoms: _456  and  _459
REMARK  194  A    between atoms: _462  and  _464
REMARK  195  A    between atoms: _464  and  _465
REMARK  196  A    between atoms: _464  and  _467
REMARK  197  A    between atoms: _470  and  _472
REMARK  198  A    between atoms: _472  and  _473
REMARK  199  A    between atoms: _472  and  _475
REMARK  200  A    between atoms: _475  and  _476
REMARK  201  A    between atoms: _480  and  _481
REMARK  202  A    between atoms: _486  and  _488
REMARK  203  A    between atoms: _488  and  _489
REMARK  204  A    between atoms: _488  and  _491
REMARK  205  A    between atoms: _491  and  _492
REMARK  206  A    between atoms: _496  and  _497
REMARK  207  A    between atoms: _502  and  _504
REMARK  208  A    between atoms: _504  and  _505
REMARK  209  A    between atoms: _508  and  _510
REMARK  210  A    between atoms: _510  and  _511
REMARK  211  A    between atoms: _510  and  _513
REMARK  212  A    between atoms: _513  and  _514
REMARK  213  A    between atoms: _519  and  _521
REMARK  214  A    between atoms: _521  and  _522
REMARK  215  A    between atoms: _521  and  _524
REMARK  216  A    between atoms: _524  and  _525
REMARK  217  A    between atoms: _528  and  _530
REMARK  218  A    between atoms: _530  and  _531
REMARK  219  A    between atoms: _530  and  _533
REMARK  220  A    between atoms: _533  and  _534
REMARK  221  A    between atoms: _537  and  _539
REMARK  222  A    between atoms: _539  and  _540
REMARK  223  A    between atoms: _542  and  _544
REMARK  224  A    between atoms: _544  and  _545
REMARK  225  A    between atoms: _544  and  _547
REMARK  226  A    between atoms: _547  and  _548
REMARK  227  A    between atoms: _548  and  _549
REMARK  228  A    between atoms: _549  and  _550
REMARK                            x       y       z     vdW  Elec       q    Type
REMARK                         _______ _______ _______ _____ _____    ______ ____
ROOT
ATOM      1  O   HOH     1      17.678  -9.662   7.218  0.00  0.00    +0.000 OA
ENDROOT
TORSDOF 0
REMARK  Name = ../refined-set-2016/3ekw/3ekw_pocket.pdb
REMARK  228 active torsions:
REMARK  status: ('A' for Active; 'I' for Inactive)
REMARK    1  A    between atoms: _1  and  _3
REMARK    2  A    between atoms: _3  and  _4
REMARK    3  A    between atoms: _3  and  _6
REMARK    4  A    between atoms: _6  and  _7
REMARK    5  A    between atoms: _7  and  _8
REMARK    6  A    between atoms: _8  and  _9
REMARK    7  A    between atoms: _18  and  _20
REMARK    8  A    between atoms: _20  and  _21
REMARK    9  A    between atoms: _20  and  _23
REMARK   10  A    between atoms: _23  and  _24
REMARK   11  A    between atoms: _27  and  _29
REMARK   12  A    between atoms: _29  and  _30
REMARK   13  A    between atoms: _29  and  _32
REMARK   14  A    between atoms: _32  and  _33
REMARK   15  A    between atoms: _36  and  _38
REMARK   16  A    between atoms: _38  and  _39
REMARK   17  A    between atoms: _38  and  _41
REMARK   18  A    between atoms: _41  and  _42
REMARK   19  A    between atoms: _45  and  _47
REMARK   20  A    between atoms: _47  and  _48
REMARK   21  A    between atoms: _47  and  _50
REMARK   22  A    between atoms: _50  and  _51
REMARK   23  A    between atoms: _54  and  _56
REMARK   24  A    between atoms: _56  and  _57
REMARK   25  A    between atoms: _59  and  _61
REMARK   26  A    between atoms: _61  and  _62
REMARK   27  A    between atoms: _65  and  _67
REMARK   28  A    between atoms: _67  and  _68
REMARK   29  A    between atoms: _67  and  _70
REMARK   30  A    between atoms: _70  and  _71
REMARK   31  A    between atoms: _74  and  _76
REMARK   32  A    between atoms: _76  and  _77
REMARK   33  A    between atoms: _76  and  _79
REMARK   34  A    between atoms: _79  and  _80
REMARK   35  A    between atoms: _83  and  _85
REMARK   36  A    between atoms: _85  and  _86
REMARK   37  A    between atoms: _85  and  _88
REMARK   38  A    between atoms: _88  and  _89
REMARK   39  A    between atoms: _92  and  _94
REMARK   40  A    between atoms: _94  and  _95
REMARK   41  A    between atoms: _94  and  _97
REMARK   42  A    between atoms: _100  and  _102
REMARK   43  A    between atoms: _102  and  _103
REMARK   44  A    between atoms: _102  and  _105
REMARK   45  A    between atoms: _105  and  _106
REMARK   46  A    between atoms: _106  and  _107
REMARK   47  A    between atoms: _107  and  _108
REMARK   48  A    between atoms: _108  and  _109
REMARK   49  A    between atoms: _113  and  _115
REMARK   50  A    between atoms: _115  and  _116
REMARK   51  A    between atoms: _115  and  _118
REMARK   52  A    between atoms: _118  and  _119
REMARK   53  A    between atoms: _119  and  _120
REMARK   54  A    between atoms: _122  and  _124
REMARK   55  A    between atoms: _124  and  _125
REMARK   56  A    between atoms: _124  and  _127
REMARK   57  A    between atoms: _127  and  _128
REMARK   58  A    between atoms: _131  and  _133
REMARK   59  A    between atoms: _133  and  _134
REMARK   60  A    between atoms: _133  and  _136
REMARK   61  A    between atoms: _139  and  _141
REMARK   62  A    between atoms: _141  and  _142
REMARK   63  A    between atoms: _144  and  _146
REMARK   64  A    between atoms: _146  and  _147
REMARK   65  A    between atoms: _146  and  _149
REMARK   66  A    between atoms: _149  and  _150
REMARK   67  A    between atoms: _153  and  _155
REMARK   68  A    between atoms: _155  and  _156
REMARK   69  A    between atoms: _158  and  _160
REMARK   70  A    between atoms: _160  and  _161
REMARK   71  A    between atoms: _163  and  _165
REMARK   72  A    between atoms: _165  and  _166
REMARK   73  A    between atoms: _165  and  _168
REMARK   74  A    between atoms: _171  and  _173
REMARK   75  A    between atoms: _173  and  _174
REMARK   76  A    between atoms: _173  and  _176
REMARK   77  A    between atoms: _179  and  _181
REMARK   78  A    between atoms: _181  and  _182
REMARK   79  A    between atoms: _181  and  _184
REMARK   80  A    between atoms: _184  and  _185
REMARK   81  A    between atoms: _188  and  _190
REMARK   82  A    between atoms: _190  and  _191
REMARK   83  A    between atoms: _190  and  _193
REMARK   84  A    between atoms: _193  and  _194
REMARK   85  A    between atoms: _198  and  _199
REMARK   86  A    between atoms: _204  and  _206
REMARK   87  A    between atoms: _206  and  _207
REMARK   88  A    between atoms: _210  and  _212
REMARK   89  A    between atoms: _212  and  _213
REMARK   90  A    between atoms: _212  and  _215
REMARK   91  A    between atoms: _215  and  _216
REMARK   92  A    between atoms: _221  and  _223
REMARK   93  A    between atoms: _223  and  _224
REMARK   94  A    between atoms: _223  and  _226
REMARK   95  A    between atoms: _226  and  _227
REMARK   96  A    between atoms: _230  and  _232
REMARK   97  A    between atoms: _232  and  _233
REMARK   98  A    between atoms: _232  and  _235
REMARK   99  A    between atoms: _235  and  _236
REMARK  100  A    between atoms: _239  and  _241
REMARK  101  A    between atoms: _241  and  _242
REMARK  102  A    between atoms: _244  and  _246
REMARK  103  A    between atoms: _246  and  _247
REMARK  104  A    between atoms: _246  and  _249
REMARK  105  A    between atoms: _249  and  _250
REMARK  106  A    between atoms: _250  and  _251
REMARK  107  A    between atoms: _251  and  _252
REMARK  108  A    between atoms: _261  and  _263
REMARK  109  A    between atoms: _263  and  _264
REMARK  110  A    between atoms: _263  and  _266
REMARK  111  A    between atoms: _266  and  _267
REMARK  112  A    between atoms: _267  and  _268
REMARK  113  A    between atoms: _268  and  _269
REMARK  114  A    between atoms: _278  and  _280
REMARK  115  A    between atoms: _280  and  _281
REMARK  116  A    between atoms: _280  and  _283
REMARK  117  A    between atoms: _283  and  _284
REMARK  118  A    between atoms: _287  and  _289
REMARK  119  A    between atoms: _289  and  _290
REMARK  120  A    between atoms: _289  and  _292
REMARK  121  A    between atoms: _292  and  _293
REMARK  122  A    between atoms: _296  and  _298
REMARK  123  A    between atoms: _298  and  _299
REMARK  124  A    between atoms: _298  and  _301
REMARK  125  A    between atoms: _301  and  _302
REMARK  126  A    between atoms: _305  and  _307
REMARK  127  A    between atoms: _307  and  _308
REMARK  128  A    between atoms: _307  and  _310
REMARK  129  A    between atoms: _310  and  _311
REMARK  130  A    between atoms: _314  and  _316
REMARK  131  A    between atoms: _316  and  _317
REMARK  132  A    between atoms: _316  and  _319
REMARK  133  A    between atoms: _319  and  _320
REMARK  134  A    between atoms: _323  and  _325
REMARK  135  A    between atoms: _325  and  _326
REMARK  136  A    between atoms: _328  and  _330
REMARK  137  A    between atoms: _330  and  _331
REMARK  138  A    between atoms: _334  and  _336
REMARK  139  A    between atoms: _336  and  _337
REMARK  140  A    between atoms: _336  and  _339
REMARK  141  A    between atoms: _339  and  _340
REMARK  142  A    between atoms: _343  and  _345
REMARK  143  A    between atoms: _345  and  _346
REMARK  144  A    between atoms: _345  and  _348
REMARK  145  A    between atoms: _348  and  _349
REMARK  146  A    between atoms: _352  and  _354
REMARK  147  A    between atoms: _354  and  _355
REMARK  148  A    between atoms: _354  and  _357
REMARK  149  A    between atoms: _357  and  _358
REMARK  150  A    between atoms: _361  and  _363
REMARK  151  A    between atoms: _363  and  _364
REMARK  152  A    between atoms: _363  and  _366
REMARK  153  A    between atoms: _369  and  _371
REMARK  154  A    between atoms: _371  and  _372
REMARK  155  A    between atoms: _371  and  _374
REMARK  156  A    between atoms: _374  and  _375
REMARK  157  A    between atoms: _375  and  _376
REMARK  158  A    between atoms: _379  and  _381
REMARK  159  A    between atoms: _381  and  _382
REMARK  160  A    between atoms: _381  and  _384
REMARK  161  A    between atoms: _384  and  _385
REMARK  162  A    between atoms: _385  and  _386
REMARK  163  A    between atoms: _386  and  _387
REMARK  164  A    between atoms: _387  and  _388
REMARK  165  A    between atoms: _392  and  _394
REMARK  166  A    between atoms: _394  and  _395
REMARK  167  A    between atoms: _394  and  _397
REMARK  168  A    between atoms: _397  and  _398
REMARK  169  A    between atoms: _398  and  _399
REMARK  170  A    between atoms: _401  and  _403
REMARK  171  A    between atoms: _403  and  _404
REMARK  172  A    between atoms: _403  and  _406
REMARK  173  A    between atoms: _406  and  _407
REMARK  174  A    between atoms: _410  and  _412
REMARK  175  A    between atoms: _412  and  _413
REMARK  176  A    between atoms: _412  and  _415
REMARK  177  A    between atoms: _418  and  _420
REMARK  178  A    between atoms: _420  and  _421
REMARK  179  A    between atoms: _423  and  _425
REMARK  180  A    between atoms: _425  and  _426
REMARK  181  A    between atoms: _425  and  _428
REMARK  182  A    between atoms: _428  and  _429
REMARK  183  A    between atoms: _432  and  _434
REMARK  184  A    between atoms: _434  and  _435
REMARK  185  A    between atoms: _437  and  _439
REMARK  186  A    between atoms: _439  and  _440
REMARK  187  A    between atoms: _442  and  _444
REMARK  188  A    between atoms: _444  and  _445
REMARK  189  A    between atoms: _444  and  _447
REMARK  190  A    between atoms: _447  and  _448
REMARK  191  A    between atoms: _454  and  _456
REMARK  192  A    between atoms: _456  and  _457
REMARK  193  A    between atoms: _456  and  _459
REMARK  194  A    between atoms: _462  and  _464
REMARK  195  A    between atoms: _464  and  _465
REMARK  196  A    between atoms: _464  and  _467
REMARK  197  A    between atoms: _470  and  _472
REMARK  198  A    between atoms: _472  and  _473
REMARK  199  A    between atoms: _472  and  _475
REMARK  200  A    between atoms: _475  and  _476
REMARK  201  A    between atoms: _480  and  _481
REMARK  202  A    between atoms: _486  and  _488
REMARK  203  A    between atoms: _488  and  _489
REMARK  204  A    between atoms: _488  and  _491
REMARK  205  A    between atoms: _491  and  _492
REMARK  206  A    between atoms: _496  and  _497
REMARK  207  A    between atoms: _502  and  _504
REMARK  208  A    between atoms: _504  and  _505
REMARK  209  A    between atoms: _508  and  _510
REMARK  210  A    between atoms: _510  and  _511
REMARK  211  A    between atoms: _510  and  _513
REMARK  212  A    between atoms: _513  and  _514
REMARK  213  A    between atoms: _519  and  _521
REMARK  214  A    between atoms: _521  and  _522
REMARK  215  A    between atoms: _521  and  _524
REMARK  216  A    between atoms: _524  and  _525
REMARK  217  A    between atoms: _528  and  _530
REMARK  218  A    between atoms: _530  and  _531
REMARK  219  A    between atoms: _530  and  _533
REMARK  220  A    between atoms: _533  and  _534
REMARK  221  A    between atoms: _537  and  _539
REMARK  222  A    between atoms: _539  and  _540
REMARK  223  A    between atoms: _542  and  _544
REMARK  224  A    between atoms: _544  and  _545
REMARK  225  A    between atoms: _544  and  _547
REMARK  226  A    between atoms: _547  and  _548
REMARK  227  A    between atoms: _548  and  _549
REMARK  228  A    between atoms: _549  and  _550
REMARK                            x       y       z     vdW  Elec       q    Type
REMARK                         _______ _______ _______ _____ _____    ______ ____
ROOT
ATOM      1  O   HOH     1      20.334  -4.804  10.656  0.00  0.00    +0.000 OA
ENDROOT
TORSDOF 0
REMARK  Name = ../refined-set-2016/3ekw/3ekw_pocket.pdb
REMARK  228 active torsions:
REMARK  status: ('A' for Active; 'I' for Inactive)
REMARK    1  A    between atoms: _1  and  _3
REMARK    2  A    between atoms: _3  and  _4
REMARK    3  A    between atoms: _3  and  _6
REMARK    4  A    between atoms: _6  and  _7
REMARK    5  A    between atoms: _7  and  _8
REMARK    6  A    between atoms: _8  and  _9
REMARK    7  A    between atoms: _18  and  _20
REMARK    8  A    between atoms: _20  and  _21
REMARK    9  A    between atoms: _20  and  _23
REMARK   10  A    between atoms: _23  and  _24
REMARK   11  A    between atoms: _27  and  _29
REMARK   12  A    between atoms: _29  and  _30
REMARK   13  A    between atoms: _29  and  _32
REMARK   14  A    between atoms: _32  and  _33
REMARK   15  A    between atoms: _36  and  _38
REMARK   16  A    between atoms: _38  and  _39
REMARK   17  A    between atoms: _38  and  _41
REMARK   18  A    between atoms: _41  and  _42
REMARK   19  A    between atoms: _45  and  _47
REMARK   20  A    between atoms: _47  and  _48
REMARK   21  A    between atoms: _47  and  _50
REMARK   22  A    between atoms: _50  and  _51
REMARK   23  A    between atoms: _54  and  _56
REMARK   24  A    between atoms: _56  and  _57
REMARK   25  A    between atoms: _59  and  _61
REMARK   26  A    between atoms: _61  and  _62
REMARK   27  A    between atoms: _65  and  _67
REMARK   28  A    between atoms: _67  and  _68
REMARK   29  A    between atoms: _67  and  _70
REMARK   30  A    between atoms: _70  and  _71
REMARK   31  A    between atoms: _74  and  _76
REMARK   32  A    between atoms: _76  and  _77
REMARK   33  A    between atoms: _76  and  _79
REMARK   34  A    between atoms: _79  and  _80
REMARK   35  A    between atoms: _83  and  _85
REMARK   36  A    between atoms: _85  and  _86
REMARK   37  A    between atoms: _85  and  _88
REMARK   38  A    between atoms: _88  and  _89
REMARK   39  A    between atoms: _92  and  _94
REMARK   40  A    between atoms: _94  and  _95
REMARK   41  A    between atoms: _94  and  _97
REMARK   42  A    between atoms: _100  and  _102
REMARK   43  A    between atoms: _102  and  _103
REMARK   44  A    between atoms: _102  and  _105
REMARK   45  A    between atoms: _105  and  _106
REMARK   46  A    between atoms: _106  and  _107
REMARK   47  A    between atoms: _107  and  _108
REMARK   48  A    between atoms: _108  and  _109
REMARK   49  A    between atoms: _113  and  _115
REMARK   50  A    between atoms: _115  and  _116
REMARK   51  A    between atoms: _115  and  _118
REMARK   52  A    between atoms: _118  and  _119
REMARK   53  A    between atoms: _119  and  _120
REMARK   54  A    between atoms: _122  and  _124
REMARK   55  A    between atoms: _124  and  _125
REMARK   56  A    between atoms: _124  and  _127
REMARK   57  A    between atoms: _127  and  _128
REMARK   58  A    between atoms: _131  and  _133
REMARK   59  A    between atoms: _133  and  _134
REMARK   60  A    between atoms: _133  and  _136
REMARK   61  A    between atoms: _139  and  _141
REMARK   62  A    between atoms: _141  and  _142
REMARK   63  A    between atoms: _144  and  _146
REMARK   64  A    between atoms: _146  and  _147
REMARK   65  A    between atoms: _146  and  _149
REMARK   66  A    between atoms: _149  and  _150
REMARK   67  A    between atoms: _153  and  _155
REMARK   68  A    between atoms: _155  and  _156
REMARK   69  A    between atoms: _158  and  _160
REMARK   70  A    between atoms: _160  and  _161
REMARK   71  A    between atoms: _163  and  _165
REMARK   72  A    between atoms: _165  and  _166
REMARK   73  A    between atoms: _165  and  _168
REMARK   74  A    between atoms: _171  and  _173
REMARK   75  A    between atoms: _173  and  _174
REMARK   76  A    between atoms: _173  and  _176
REMARK   77  A    between atoms: _179  and  _181
REMARK   78  A    between atoms: _181  and  _182
REMARK   79  A    between atoms: _181  and  _184
REMARK   80  A    between atoms: _184  and  _185
REMARK   81  A    between atoms: _188  and  _190
REMARK   82  A    between atoms: _190  and  _191
REMARK   83  A    between atoms: _190  and  _193
REMARK   84  A    between atoms: _193  and  _194
REMARK   85  A    between atoms: _198  and  _199
REMARK   86  A    between atoms: _204  and  _206
REMARK   87  A    between atoms: _206  and  _207
REMARK   88  A    between atoms: _210  and  _212
REMARK   89  A    between atoms: _212  and  _213
REMARK   90  A    between atoms: _212  and  _215
REMARK   91  A    between atoms: _215  and  _216
REMARK   92  A    between atoms: _221  and  _223
REMARK   93  A    between atoms: _223  and  _224
REMARK   94  A    between atoms: _223  and  _226
REMARK   95  A    between atoms: _226  and  _227
REMARK   96  A    between atoms: _230  and  _232
REMARK   97  A    between atoms: _232  and  _233
REMARK   98  A    between atoms: _232  and  _235
REMARK   99  A    between atoms: _235  and  _236
REMARK  100  A    between atoms: _239  and  _241
REMARK  101  A    between atoms: _241  and  _242
REMARK  102  A    between atoms: _244  and  _246
REMARK  103  A    between atoms: _246  and  _247
REMARK  104  A    between atoms: _246  and  _249
REMARK  105  A    between atoms: _249  and  _250
REMARK  106  A    between atoms: _250  and  _251
REMARK  107  A    between atoms: _251  and  _252
REMARK  108  A    between atoms: _261  and  _263
REMARK  109  A    between atoms: _263  and  _264
REMARK  110  A    between atoms: _263  and  _266
REMARK  111  A    between atoms: _266  and  _267
REMARK  112  A    between atoms: _267  and  _268
REMARK  113  A    between atoms: _268  and  _269
REMARK  114  A    between atoms: _278  and  _280
REMARK  115  A    between atoms: _280  and  _281
REMARK  116  A    between atoms: _280  and  _283
REMARK  117  A    between atoms: _283  and  _284
REMARK  118  A    between atoms: _287  and  _289
REMARK  119  A    between atoms: _289  and  _290
REMARK  120  A    between atoms: _289  and  _292
REMARK  121  A    between atoms: _292  and  _293
REMARK  122  A    between atoms: _296  and  _298
REMARK  123  A    between atoms: _298  and  _299
REMARK  124  A    between atoms: _298  and  _301
REMARK  125  A    between atoms: _301  and  _302
REMARK  126  A    between atoms: _305  and  _307
REMARK  127  A    between atoms: _307  and  _308
REMARK  128  A    between atoms: _307  and  _310
REMARK  129  A    between atoms: _310  and  _311
REMARK  130  A    between atoms: _314  and  _316
REMARK  131  A    between atoms: _316  and  _317
REMARK  132  A    between atoms: _316  and  _319
REMARK  133  A    between atoms: _319  and  _320
REMARK  134  A    between atoms: _323  and  _325
REMARK  135  A    between atoms: _325  and  _326
REMARK  136  A    between atoms: _328  and  _330
REMARK  137  A    between atoms: _330  and  _331
REMARK  138  A    between atoms: _334  and  _336
REMARK  139  A    between atoms: _336  and  _337
REMARK  140  A    between atoms: _336  and  _339
REMARK  141  A    between atoms: _339  and  _340
REMARK  142  A    between atoms: _343  and  _345
REMARK  143  A    between atoms: _345  and  _346
REMARK  144  A    between atoms: _345  and  _348
REMARK  145  A    between atoms: _348  and  _349
REMARK  146  A    between atoms: _352  and  _354
REMARK  147  A    between atoms: _354  and  _355
REMARK  148  A    between atoms: _354  and  _357
REMARK  149  A    between atoms: _357  and  _358
REMARK  150  A    between atoms: _361  and  _363
REMARK  151  A    between atoms: _363  and  _364
REMARK  152  A    between atoms: _363  and  _366
REMARK  153  A    between atoms: _369  and  _371
REMARK  154  A    between atoms: _371  and  _372
REMARK  155  A    between atoms: _371  and  _374
REMARK  156  A    between atoms: _374  and  _375
REMARK  157  A    between atoms: _375  and  _376
REMARK  158  A    between atoms: _379  and  _381
REMARK  159  A    between atoms: _381  and  _382
REMARK  160  A    between atoms: _381  and  _384
REMARK  161  A    between atoms: _384  and  _385
REMARK  162  A    between atoms: _385  and  _386
REMARK  163  A    between atoms: _386  and  _387
REMARK  164  A    between atoms: _387  and  _388
REMARK  165  A    between atoms: _392  and  _394
REMARK  166  A    between atoms: _394  and  _395
REMARK  167  A    between atoms: _394  and  _397
REMARK  168  A    between atoms: _397  and  _398
REMARK  169  A    between atoms: _398  and  _399
REMARK  170  A    between atoms: _401  and  _403
REMARK  171  A    between atoms: _403  and  _404
REMARK  172  A    between atoms: _403  and  _406
REMARK  173  A    between atoms: _406  and  _407
REMARK  174  A    between atoms: _410  and  _412
REMARK  175  A    between atoms: _412  and  _413
REMARK  176  A    between atoms: _412  and  _415
REMARK  177  A    between atoms: _418  and  _420
REMARK  178  A    between atoms: _420  and  _421
REMARK  179  A    between atoms: _423  and  _425
REMARK  180  A    between atoms: _425  and  _426
REMARK  181  A    between atoms: _425  and  _428
REMARK  182  A    between atoms: _428  and  _429
REMARK  183  A    between atoms: _432  and  _434
REMARK  184  A    between atoms: _434  and  _435
REMARK  185  A    between atoms: _437  and  _439
REMARK  186  A    between atoms: _439  and  _440
REMARK  187  A    between atoms: _442  and  _444
REMARK  188  A    between atoms: _444  and  _445
REMARK  189  A    between atoms: _444  and  _447
REMARK  190  A    between atoms: _447  and  _448
REMARK  191  A    between atoms: _454  and  _456
REMARK  192  A    between atoms: _456  and  _457
REMARK  193  A    between atoms: _456  and  _459
REMARK  194  A    between atoms: _462  and  _464
REMARK  195  A    between atoms: _464  and  _465
REMARK  196  A    between atoms: _464  and  _467
REMARK  197  A    between atoms: _470  and  _472
REMARK  198  A    between atoms: _472  and  _473
REMARK  199  A    between atoms: _472  and  _475
REMARK  200  A    between atoms: _475  and  _476
REMARK  201  A    between atoms: _480  and  _481
REMARK  202  A    between atoms: _486  and  _488
REMARK  203  A    between atoms: _488  and  _489
REMARK  204  A    between atoms: _488  and  _491
REMARK  205  A    between atoms: _491  and  _492
REMARK  206  A    between atoms: _496  and  _497
REMARK  207  A    between atoms: _502  and  _504
REMARK  208  A    between atoms: _504  and  _505
REMARK  209  A    between atoms: _508  and  _510
REMARK  210  A    between atoms: _510  and  _511
REMARK  211  A    between atoms: _510  and  _513
REMARK  212  A    between atoms: _513  and  _514
REMARK  213  A    between atoms: _519  and  _521
REMARK  214  A    between atoms: _521  and  _522
REMARK  215  A    between atoms: _521  and  _524
REMARK  216  A    between atoms: _524  and  _525
REMARK  217  A    between atoms: _528  and  _530
REMARK  218  A    between atoms: _530  and  _531
REMARK  219  A    between atoms: _530  and  _533
REMARK  220  A    between atoms: _533  and  _534
REMARK  221  A    between atoms: _537  and  _539
REMARK  222  A    between atoms: _539  and  _540
REMARK  223  A    between atoms: _542  and  _544
REMARK  224  A    between atoms: _544  and  _545
REMARK  225  A    between atoms: _544  and  _547
REMARK  226  A    between atoms: _547  and  _548
REMARK  227  A    between atoms: _548  and  _549
REMARK  228  A    between atoms: _549  and  _550
REMARK                            x       y       z     vdW  Elec       q    Type
REMARK                         _______ _______ _______ _____ _____    ______ ____
ROOT
ATOM      1  O   HOH     1      19.978  -2.211  19.799  0.00  0.00    +0.000 OA
ENDROOT
TORSDOF 0
REMARK  Name = ../refined-set-2016/3ekw/3ekw_pocket.pdb
REMARK  228 active torsions:
REMARK  status: ('A' for Active; 'I' for Inactive)
REMARK    1  A    between atoms: _1  and  _3
REMARK    2  A    between atoms: _3  and  _4
REMARK    3  A    between atoms: _3  and  _6
REMARK    4  A    between atoms: _6  and  _7
REMARK    5  A    between atoms: _7  and  _8
REMARK    6  A    between atoms: _8  and  _9
REMARK    7  A    between atoms: _18  and  _20
REMARK    8  A    between atoms: _20  and  _21
REMARK    9  A    between atoms: _20  and  _23
REMARK   10  A    between atoms: _23  and  _24
REMARK   11  A    between atoms: _27  and  _29
REMARK   12  A    between atoms: _29  and  _30
REMARK   13  A    between atoms: _29  and  _32
REMARK   14  A    between atoms: _32  and  _33
REMARK   15  A    between atoms: _36  and  _38
REMARK   16  A    between atoms: _38  and  _39
REMARK   17  A    between atoms: _38  and  _41
REMARK   18  A    between atoms: _41  and  _42
REMARK   19  A    between atoms: _45  and  _47
REMARK   20  A    between atoms: _47  and  _48
REMARK   21  A    between atoms: _47  and  _50
REMARK   22  A    between atoms: _50  and  _51
REMARK   23  A    between atoms: _54  and  _56
REMARK   24  A    between atoms: _56  and  _57
REMARK   25  A    between atoms: _59  and  _61
REMARK   26  A    between atoms: _61  and  _62
REMARK   27  A    between atoms: _65  and  _67
REMARK   28  A    between atoms: _67  and  _68
REMARK   29  A    between atoms: _67  and  _70
REMARK   30  A    between atoms: _70  and  _71
REMARK   31  A    between atoms: _74  and  _76
REMARK   32  A    between atoms: _76  and  _77
REMARK   33  A    between atoms: _76  and  _79
REMARK   34  A    between atoms: _79  and  _80
REMARK   35  A    between atoms: _83  and  _85
REMARK   36  A    between atoms: _85  and  _86
REMARK   37  A    between atoms: _85  and  _88
REMARK   38  A    between atoms: _88  and  _89
REMARK   39  A    between atoms: _92  and  _94
REMARK   40  A    between atoms: _94  and  _95
REMARK   41  A    between atoms: _94  and  _97
REMARK   42  A    between atoms: _100  and  _102
REMARK   43  A    between atoms: _102  and  _103
REMARK   44  A    between atoms: _102  and  _105
REMARK   45  A    between atoms: _105  and  _106
REMARK   46  A    between atoms: _106  and  _107
REMARK   47  A    between atoms: _107  and  _108
REMARK   48  A    between atoms: _108  and  _109
REMARK   49  A    between atoms: _113  and  _115
REMARK   50  A    between atoms: _115  and  _116
REMARK   51  A    between atoms: _115  and  _118
REMARK   52  A    between atoms: _118  and  _119
REMARK   53  A    between atoms: _119  and  _120
REMARK   54  A    between atoms: _122  and  _124
REMARK   55  A    between atoms: _124  and  _125
REMARK   56  A    between atoms: _124  and  _127
REMARK   57  A    between atoms: _127  and  _128
REMARK   58  A    between atoms: _131  and  _133
REMARK   59  A    between atoms: _133  and  _134
REMARK   60  A    between atoms: _133  and  _136
REMARK   61  A    between atoms: _139  and  _141
REMARK   62  A    between atoms: _141  and  _142
REMARK   63  A    between atoms: _144  and  _146
REMARK   64  A    between atoms: _146  and  _147
REMARK   65  A    between atoms: _146  and  _149
REMARK   66  A    between atoms: _149  and  _150
REMARK   67  A    between atoms: _153  and  _155
REMARK   68  A    between atoms: _155  and  _156
REMARK   69  A    between atoms: _158  and  _160
REMARK   70  A    between atoms: _160  and  _161
REMARK   71  A    between atoms: _163  and  _165
REMARK   72  A    between atoms: _165  and  _166
REMARK   73  A    between atoms: _165  and  _168
REMARK   74  A    between atoms: _171  and  _173
REMARK   75  A    between atoms: _173  and  _174
REMARK   76  A    between atoms: _173  and  _176
REMARK   77  A    between atoms: _179  and  _181
REMARK   78  A    between atoms: _181  and  _182
REMARK   79  A    between atoms: _181  and  _184
REMARK   80  A    between atoms: _184  and  _185
REMARK   81  A    between atoms: _188  and  _190
REMARK   82  A    between atoms: _190  and  _191
REMARK   83  A    between atoms: _190  and  _193
REMARK   84  A    between atoms: _193  and  _194
REMARK   85  A    between atoms: _198  and  _199
REMARK   86  A    between atoms: _204  and  _206
REMARK   87  A    between atoms: _206  and  _207
REMARK   88  A    between atoms: _210  and  _212
REMARK   89  A    between atoms: _212  and  _213
REMARK   90  A    between atoms: _212  and  _215
REMARK   91  A    between atoms: _215  and  _216
REMARK   92  A    between atoms: _221  and  _223
REMARK   93  A    between atoms: _223  and  _224
REMARK   94  A    between atoms: _223  and  _226
REMARK   95  A    between atoms: _226  and  _227
REMARK   96  A    between atoms: _230  and  _232
REMARK   97  A    between atoms: _232  and  _233
REMARK   98  A    between atoms: _232  and  _235
REMARK   99  A    between atoms: _235  and  _236
REMARK  100  A    between atoms: _239  and  _241
REMARK  101  A    between atoms: _241  and  _242
REMARK  102  A    between atoms: _244  and  _246
REMARK  103  A    between atoms: _246  and  _247
REMARK  104  A    between atoms: _246  and  _249
REMARK  105  A    between atoms: _249  and  _250
REMARK  106  A    between atoms: _250  and  _251
REMARK  107  A    between atoms: _251  and  _252
REMARK  108  A    between atoms: _261  and  _263
REMARK  109  A    between atoms: _263  and  _264
REMARK  110  A    between atoms: _263  and  _266
REMARK  111  A    between atoms: _266  and  _267
REMARK  112  A    between atoms: _267  and  _268
REMARK  113  A    between atoms: _268  and  _269
REMARK  114  A    between atoms: _278  and  _280
REMARK  115  A    between atoms: _280  and  _281
REMARK  116  A    between atoms: _280  and  _283
REMARK  117  A    between atoms: _283  and  _284
REMARK  118  A    between atoms: _287  and  _289
REMARK  119  A    between atoms: _289  and  _290
REMARK  120  A    between atoms: _289  and  _292
REMARK  121  A    between atoms: _292  and  _293
REMARK  122  A    between atoms: _296  and  _298
REMARK  123  A    between atoms: _298  and  _299
REMARK  124  A    between atoms: _298  and  _301
REMARK  125  A    between atoms: _301  and  _302
REMARK  126  A    between atoms: _305  and  _307
REMARK  127  A    between atoms: _307  and  _308
REMARK  128  A    between atoms: _307  and  _310
REMARK  129  A    between atoms: _310  and  _311
REMARK  130  A    between atoms: _314  and  _316
REMARK  131  A    between atoms: _316  and  _317
REMARK  132  A    between atoms: _316  and  _319
REMARK  133  A    between atoms: _319  and  _320
REMARK  134  A    between atoms: _323  and  _325
REMARK  135  A    between atoms: _325  and  _326
REMARK  136  A    between atoms: _328  and  _330
REMARK  137  A    between atoms: _330  and  _331
REMARK  138  A    between atoms: _334  and  _336
REMARK  139  A    between atoms: _336  and  _337
REMARK  140  A    between atoms: _336  and  _339
REMARK  141  A    between atoms: _339  and  _340
REMARK  142  A    between atoms: _343  and  _345
REMARK  143  A    between atoms: _345  and  _346
REMARK  144  A    between atoms: _345  and  _348
REMARK  145  A    between atoms: _348  and  _349
REMARK  146  A    between atoms: _352  and  _354
REMARK  147  A    between atoms: _354  and  _355
REMARK  148  A    between atoms: _354  and  _357
REMARK  149  A    between atoms: _357  and  _358
REMARK  150  A    between atoms: _361  and  _363
REMARK  151  A    between atoms: _363  and  _364
REMARK  152  A    between atoms: _363  and  _366
REMARK  153  A    between atoms: _369  and  _371
REMARK  154  A    between atoms: _371  and  _372
REMARK  155  A    between atoms: _371  and  _374
REMARK  156  A    between atoms: _374  and  _375
REMARK  157  A    between atoms: _375  and  _376
REMARK  158  A    between atoms: _379  and  _381
REMARK  159  A    between atoms: _381  and  _382
REMARK  160  A    between atoms: _381  and  _384
REMARK  161  A    between atoms: _384  and  _385
REMARK  162  A    between atoms: _385  and  _386
REMARK  163  A    between atoms: _386  and  _387
REMARK  164  A    between atoms: _387  and  _388
REMARK  165  A    between atoms: _392  and  _394
REMARK  166  A    between atoms: _394  and  _395
REMARK  167  A    between atoms: _394  and  _397
REMARK  168  A    between atoms: _397  and  _398
REMARK  169  A    between atoms: _398  and  _399
REMARK  170  A    between atoms: _401  and  _403
REMARK  171  A    between atoms: _403  and  _404
REMARK  172  A    between atoms: _403  and  _406
REMARK  173  A    between atoms: _406  and  _407
REMARK  174  A    between atoms: _410  and  _412
REMARK  175  A    between atoms: _412  and  _413
REMARK  176  A    between atoms: _412  and  _415
REMARK  177  A    between atoms: _418  and  _420
REMARK  178  A    between atoms: _420  and  _421
REMARK  179  A    between atoms: _423  and  _425
REMARK  180  A    between atoms: _425  and  _426
REMARK  181  A    between atoms: _425  and  _428
REMARK  182  A    between atoms: _428  and  _429
REMARK  183  A    between atoms: _432  and  _434
REMARK  184  A    between atoms: _434  and  _435
REMARK  185  A    between atoms: _437  and  _439
REMARK  186  A    between atoms: _439  and  _440
REMARK  187  A    between atoms: _442  and  _444
REMARK  188  A    between atoms: _444  and  _445
REMARK  189  A    between atoms: _444  and  _447
REMARK  190  A    between atoms: _447  and  _448
REMARK  191  A    between atoms: _454  and  _456
REMARK  192  A    between atoms: _456  and  _457
REMARK  193  A    between atoms: _456  and  _459
REMARK  194  A    between atoms: _462  and  _464
REMARK  195  A    between atoms: _464  and  _465
REMARK  196  A    between atoms: _464  and  _467
REMARK  197  A    between atoms: _470  and  _472
REMARK  198  A    between atoms: _472  and  _473
REMARK  199  A    between atoms: _472  and  _475
REMARK  200  A    between atoms: _475  and  _476
REMARK  201  A    between atoms: _480  and  _481
REMARK  202  A    between atoms: _486  and  _488
REMARK  203  A    between atoms: _488  and  _489
REMARK  204  A    between atoms: _488  and  _491
REMARK  205  A    between atoms: _491  and  _492
REMARK  206  A    between atoms: _496  and  _497
REMARK  207  A    between atoms: _502  and  _504
REMARK  208  A    between atoms: _504  and  _505
REMARK  209  A    between atoms: _508  and  _510
REMARK  210  A    between atoms: _510  and  _511
REMARK  211  A    between atoms: _510  and  _513
REMARK  212  A    between atoms: _513  and  _514
REMARK  213  A    between atoms: _519  and  _521
REMARK  214  A    between atoms: _521  and  _522
REMARK  215  A    between atoms: _521  and  _524
REMARK  216  A    between atoms: _524  and  _525
REMARK  217  A    between atoms: _528  and  _530
REMARK  218  A    between atoms: _530  and  _531
REMARK  219  A    between atoms: _530  and  _533
REMARK  220  A    between atoms: _533  and  _534
REMARK  221  A    between atoms: _537  and  _539
REMARK  222  A    between atoms: _539  and  _540
REMARK  223  A    between atoms: _542  and  _544
REMARK  224  A    between atoms: _544  and  _545
REMARK  225  A    between atoms: _544  and  _547
REMARK  226  A    between atoms: _547  and  _548
REMARK  227  A    between atoms: _548  and  _549
REMARK  228  A    between atoms: _549  and  _550
REMARK                            x       y       z     vdW  Elec       q    Type
REMARK                         _______ _______ _______ _____ _____    ______ ____
ROOT
ATOM      1  O   HOH     1      13.312  -9.385   9.080  0.00  0.00    +0.000 OA
ENDROOT
TORSDOF 0
REMARK  Name = ../refined-set-2016/3ekw/3ekw_pocket.pdb
REMARK  228 active torsions:
REMARK  status: ('A' for Active; 'I' for Inactive)
REMARK    1  A    between atoms: _1  and  _3
REMARK    2  A    between atoms: _3  and  _4
REMARK    3  A    between atoms: _3  and  _6
REMARK    4  A    between atoms: _6  and  _7
REMARK    5  A    between atoms: _7  and  _8
REMARK    6  A    between atoms: _8  and  _9
REMARK    7  A    between atoms: _18  and  _20
REMARK    8  A    between atoms: _20  and  _21
REMARK    9  A    between atoms: _20  and  _23
REMARK   10  A    between atoms: _23  and  _24
REMARK   11  A    between atoms: _27  and  _29
REMARK   12  A    between atoms: _29  and  _30
REMARK   13  A    between atoms: _29  and  _32
REMARK   14  A    between atoms: _32  and  _33
REMARK   15  A    between atoms: _36  and  _38
REMARK   16  A    between atoms: _38  and  _39
REMARK   17  A    between atoms: _38  and  _41
REMARK   18  A    between atoms: _41  and  _42
REMARK   19  A    between atoms: _45  and  _47
REMARK   20  A    between atoms: _47  and  _48
REMARK   21  A    between atoms: _47  and  _50
REMARK   22  A    between atoms: _50  and  _51
REMARK   23  A    between atoms: _54  and  _56
REMARK   24  A    between atoms: _56  and  _57
REMARK   25  A    between atoms: _59  and  _61
REMARK   26  A    between atoms: _61  and  _62
REMARK   27  A    between atoms: _65  and  _67
REMARK   28  A    between atoms: _67  and  _68
REMARK   29  A    between atoms: _67  and  _70
REMARK   30  A    between atoms: _70  and  _71
REMARK   31  A    between atoms: _74  and  _76
REMARK   32  A    between atoms: _76  and  _77
REMARK   33  A    between atoms: _76  and  _79
REMARK   34  A    between atoms: _79  and  _80
REMARK   35  A    between atoms: _83  and  _85
REMARK   36  A    between atoms: _85  and  _86
REMARK   37  A    between atoms: _85  and  _88
REMARK   38  A    between atoms: _88  and  _89
REMARK   39  A    between atoms: _92  and  _94
REMARK   40  A    between atoms: _94  and  _95
REMARK   41  A    between atoms: _94  and  _97
REMARK   42  A    between atoms: _100  and  _102
REMARK   43  A    between atoms: _102  and  _103
REMARK   44  A    between atoms: _102  and  _105
REMARK   45  A    between atoms: _105  and  _106
REMARK   46  A    between atoms: _106  and  _107
REMARK   47  A    between atoms: _107  and  _108
REMARK   48  A    between atoms: _108  and  _109
REMARK   49  A    between atoms: _113  and  _115
REMARK   50  A    between atoms: _115  and  _116
REMARK   51  A    between atoms: _115  and  _118
REMARK   52  A    between atoms: _118  and  _119
REMARK   53  A    between atoms: _119  and  _120
REMARK   54  A    between atoms: _122  and  _124
REMARK   55  A    between atoms: _124  and  _125
REMARK   56  A    between atoms: _124  and  _127
REMARK   57  A    between atoms: _127  and  _128
REMARK   58  A    between atoms: _131  and  _133
REMARK   59  A    between atoms: _133  and  _134
REMARK   60  A    between atoms: _133  and  _136
REMARK   61  A    between atoms: _139  and  _141
REMARK   62  A    between atoms: _141  and  _142
REMARK   63  A    between atoms: _144  and  _146
REMARK   64  A    between atoms: _146  and  _147
REMARK   65  A    between atoms: _146  and  _149
REMARK   66  A    between atoms: _149  and  _150
REMARK   67  A    between atoms: _153  and  _155
REMARK   68  A    between atoms: _155  and  _156
REMARK   69  A    between atoms: _158  and  _160
REMARK   70  A    between atoms: _160  and  _161
REMARK   71  A    between atoms: _163  and  _165
REMARK   72  A    between atoms: _165  and  _166
REMARK   73  A    between atoms: _165  and  _168
REMARK   74  A    between atoms: _171  and  _173
REMARK   75  A    between atoms: _173  and  _174
REMARK   76  A    between atoms: _173  and  _176
REMARK   77  A    between atoms: _179  and  _181
REMARK   78  A    between atoms: _181  and  _182
REMARK   79  A    between atoms: _181  and  _184
REMARK   80  A    between atoms: _184  and  _185
REMARK   81  A    between atoms: _188  and  _190
REMARK   82  A    between atoms: _190  and  _191
REMARK   83  A    between atoms: _190  and  _193
REMARK   84  A    between atoms: _193  and  _194
REMARK   85  A    between atoms: _198  and  _199
REMARK   86  A    between atoms: _204  and  _206
REMARK   87  A    between atoms: _206  and  _207
REMARK   88  A    between atoms: _210  and  _212
REMARK   89  A    between atoms: _212  and  _213
REMARK   90  A    between atoms: _212  and  _215
REMARK   91  A    between atoms: _215  and  _216
REMARK   92  A    between atoms: _221  and  _223
REMARK   93  A    between atoms: _223  and  _224
REMARK   94  A    between atoms: _223  and  _226
REMARK   95  A    between atoms: _226  and  _227
REMARK   96  A    between atoms: _230  and  _232
REMARK   97  A    between atoms: _232  and  _233
REMARK   98  A    between atoms: _232  and  _235
REMARK   99  A    between atoms: _235  and  _236
REMARK  100  A    between atoms: _239  and  _241
REMARK  101  A    between atoms: _241  and  _242
REMARK  102  A    between atoms: _244  and  _246
REMARK  103  A    between atoms: _246  and  _247
REMARK  104  A    between atoms: _246  and  _249
REMARK  105  A    between atoms: _249  and  _250
REMARK  106  A    between atoms: _250  and  _251
REMARK  107  A    between atoms: _251  and  _252
REMARK  108  A    between atoms: _261  and  _263
REMARK  109  A    between atoms: _263  and  _264
REMARK  110  A    between atoms: _263  and  _266
REMARK  111  A    between atoms: _266  and  _267
REMARK  112  A    between atoms: _267  and  _268
REMARK  113  A    between atoms: _268  and  _269
REMARK  114  A    between atoms: _278  and  _280
REMARK  115  A    between atoms: _280  and  _281
REMARK  116  A    between atoms: _280  and  _283
REMARK  117  A    between atoms: _283  and  _284
REMARK  118  A    between atoms: _287  and  _289
REMARK  119  A    between atoms: _289  and  _290
REMARK  120  A    between atoms: _289  and  _292
REMARK  121  A    between atoms: _292  and  _293
REMARK  122  A    between atoms: _296  and  _298
REMARK  123  A    between atoms: _298  and  _299
REMARK  124  A    between atoms: _298  and  _301
REMARK  125  A    between atoms: _301  and  _302
REMARK  126  A    between atoms: _305  and  _307
REMARK  127  A    between atoms: _307  and  _308
REMARK  128  A    between atoms: _307  and  _310
REMARK  129  A    between atoms: _310  and  _311
REMARK  130  A    between atoms: _314  and  _316
REMARK  131  A    between atoms: _316  and  _317
REMARK  132  A    between atoms: _316  and  _319
REMARK  133  A    between atoms: _319  and  _320
REMARK  134  A    between atoms: _323  and  _325
REMARK  135  A    between atoms: _325  and  _326
REMARK  136  A    between atoms: _328  and  _330
REMARK  137  A    between atoms: _330  and  _331
REMARK  138  A    between atoms: _334  and  _336
REMARK  139  A    between atoms: _336  and  _337
REMARK  140  A    between atoms: _336  and  _339
REMARK  141  A    between atoms: _339  and  _340
REMARK  142  A    between atoms: _343  and  _345
REMARK  143  A    between atoms: _345  and  _346
REMARK  144  A    between atoms: _345  and  _348
REMARK  145  A    between atoms: _348  and  _349
REMARK  146  A    between atoms: _352  and  _354
REMARK  147  A    between atoms: _354  and  _355
REMARK  148  A    between atoms: _354  and  _357
REMARK  149  A    between atoms: _357  and  _358
REMARK  150  A    between atoms: _361  and  _363
REMARK  151  A    between atoms: _363  and  _364
REMARK  152  A    between atoms: _363  and  _366
REMARK  153  A    between atoms: _369  and  _371
REMARK  154  A    between atoms: _371  and  _372
REMARK  155  A    between atoms: _371  and  _374
REMARK  156  A    between atoms: _374  and  _375
REMARK  157  A    between atoms: _375  and  _376
REMARK  158  A    between atoms: _379  and  _381
REMARK  159  A    between atoms: _381  and  _382
REMARK  160  A    between atoms: _381  and  _384
REMARK  161  A    between atoms: _384  and  _385
REMARK  162  A    between atoms: _385  and  _386
REMARK  163  A    between atoms: _386  and  _387
REMARK  164  A    between atoms: _387  and  _388
REMARK  165  A    between atoms: _392  and  _394
REMARK  166  A    between atoms: _394  and  _395
REMARK  167  A    between atoms: _394  and  _397
REMARK  168  A    between atoms: _397  and  _398
REMARK  169  A    between atoms: _398  and  _399
REMARK  170  A    between atoms: _401  and  _403
REMARK  171  A    between atoms: _403  and  _404
REMARK  172  A    between atoms: _403  and  _406
REMARK  173  A    between atoms: _406  and  _407
REMARK  174  A    between atoms: _410  and  _412
REMARK  175  A    between atoms: _412  and  _413
REMARK  176  A    between atoms: _412  and  _415
REMARK  177  A    between atoms: _418  and  _420
REMARK  178  A    between atoms: _420  and  _421
REMARK  179  A    between atoms: _423  and  _425
REMARK  180  A    between atoms: _425  and  _426
REMARK  181  A    between atoms: _425  and  _428
REMARK  182  A    between atoms: _428  and  _429
REMARK  183  A    between atoms: _432  and  _434
REMARK  184  A    between atoms: _434  and  _435
REMARK  185  A    between atoms: _437  and  _439
REMARK  186  A    between atoms: _439  and  _440
REMARK  187  A    between atoms: _442  and  _444
REMARK  188  A    between atoms: _444  and  _445
REMARK  189  A    between atoms: _444  and  _447
REMARK  190  A    between atoms: _447  and  _448
REMARK  191  A    between atoms: _454  and  _456
REMARK  192  A    between atoms: _456  and  _457
REMARK  193  A    between atoms: _456  and  _459
REMARK  194  A    between atoms: _462  and  _464
REMARK  195  A    between atoms: _464  and  _465
REMARK  196  A    between atoms: _464  and  _467
REMARK  197  A    between atoms: _470  and  _472
REMARK  198  A    between atoms: _472  and  _473
REMARK  199  A    between atoms: _472  and  _475
REMARK  200  A    between atoms: _475  and  _476
REMARK  201  A    between atoms: _480  and  _481
REMARK  202  A    between atoms: _486  and  _488
REMARK  203  A    between atoms: _488  and  _489
REMARK  204  A    between atoms: _488  and  _491
REMARK  205  A    between atoms: _491  and  _492
REMARK  206  A    between atoms: _496  and  _497
REMARK  207  A    between atoms: _502  and  _504
REMARK  208  A    between atoms: _504  and  _505
REMARK  209  A    between atoms: _508  and  _510
REMARK  210  A    between atoms: _510  and  _511
REMARK  211  A    between atoms: _510  and  _513
REMARK  212  A    between atoms: _513  and  _514
REMARK  213  A    between atoms: _519  and  _521
REMARK  214  A    between atoms: _521  and  _522
REMARK  215  A    between atoms: _521  and  _524
REMARK  216  A    between atoms: _524  and  _525
REMARK  217  A    between atoms: _528  and  _530
REMARK  218  A    between atoms: _530  and  _531
REMARK  219  A    between atoms: _530  and  _533
REMARK  220  A    between atoms: _533  and  _534
REMARK  221  A    between atoms: _537  and  _539
REMARK  222  A    between atoms: _539  and  _540
REMARK  223  A    between atoms: _542  and  _544
REMARK  224  A    between atoms: _544  and  _545
REMARK  225  A    between atoms: _544  and  _547
REMARK  226  A    between atoms: _547  and  _548
REMARK  227  A    between atoms: _548  and  _549
REMARK  228  A    between atoms: _549  and  _550
REMARK                            x       y       z     vdW  Elec       q    Type
REMARK                         _______ _______ _______ _____ _____    ______ ____
ROOT
ATOM      1  O   HOH     1       9.025  -5.282  11.165  0.00  0.00    +0.000 OA
ENDROOT
TORSDOF 0
REMARK  Name = ../refined-set-2016/3ekw/3ekw_pocket.pdb
REMARK  228 active torsions:
REMARK  status: ('A' for Active; 'I' for Inactive)
REMARK    1  A    between atoms: _1  and  _3
REMARK    2  A    between atoms: _3  and  _4
REMARK    3  A    between atoms: _3  and  _6
REMARK    4  A    between atoms: _6  and  _7
REMARK    5  A    between atoms: _7  and  _8
REMARK    6  A    between atoms: _8  and  _9
REMARK    7  A    between atoms: _18  and  _20
REMARK    8  A    between atoms: _20  and  _21
REMARK    9  A    between atoms: _20  and  _23
REMARK   10  A    between atoms: _23  and  _24
REMARK   11  A    between atoms: _27  and  _29
REMARK   12  A    between atoms: _29  and  _30
REMARK   13  A    between atoms: _29  and  _32
REMARK   14  A    between atoms: _32  and  _33
REMARK   15  A    between atoms: _36  and  _38
REMARK   16  A    between atoms: _38  and  _39
REMARK   17  A    between atoms: _38  and  _41
REMARK   18  A    between atoms: _41  and  _42
REMARK   19  A    between atoms: _45  and  _47
REMARK   20  A    between atoms: _47  and  _48
REMARK   21  A    between atoms: _47  and  _50
REMARK   22  A    between atoms: _50  and  _51
REMARK   23  A    between atoms: _54  and  _56
REMARK   24  A    between atoms: _56  and  _57
REMARK   25  A    between atoms: _59  and  _61
REMARK   26  A    between atoms: _61  and  _62
REMARK   27  A    between atoms: _65  and  _67
REMARK   28  A    between atoms: _67  and  _68
REMARK   29  A    between atoms: _67  and  _70
REMARK   30  A    between atoms: _70  and  _71
REMARK   31  A    between atoms: _74  and  _76
REMARK   32  A    between atoms: _76  and  _77
REMARK   33  A    between atoms: _76  and  _79
REMARK   34  A    between atoms: _79  and  _80
REMARK   35  A    between atoms: _83  and  _85
REMARK   36  A    between atoms: _85  and  _86
REMARK   37  A    between atoms: _85  and  _88
REMARK   38  A    between atoms: _88  and  _89
REMARK   39  A    between atoms: _92  and  _94
REMARK   40  A    between atoms: _94  and  _95
REMARK   41  A    between atoms: _94  and  _97
REMARK   42  A    between atoms: _100  and  _102
REMARK   43  A    between atoms: _102  and  _103
REMARK   44  A    between atoms: _102  and  _105
REMARK   45  A    between atoms: _105  and  _106
REMARK   46  A    between atoms: _106  and  _107
REMARK   47  A    between atoms: _107  and  _108
REMARK   48  A    between atoms: _108  and  _109
REMARK   49  A    between atoms: _113  and  _115
REMARK   50  A    between atoms: _115  and  _116
REMARK   51  A    between atoms: _115  and  _118
REMARK   52  A    between atoms: _118  and  _119
REMARK   53  A    between atoms: _119  and  _120
REMARK   54  A    between atoms: _122  and  _124
REMARK   55  A    between atoms: _124  and  _125
REMARK   56  A    between atoms: _124  and  _127
REMARK   57  A    between atoms: _127  and  _128
REMARK   58  A    between atoms: _131  and  _133
REMARK   59  A    between atoms: _133  and  _134
REMARK   60  A    between atoms: _133  and  _136
REMARK   61  A    between atoms: _139  and  _141
REMARK   62  A    between atoms: _141  and  _142
REMARK   63  A    between atoms: _144  and  _146
REMARK   64  A    between atoms: _146  and  _147
REMARK   65  A    between atoms: _146  and  _149
REMARK   66  A    between atoms: _149  and  _150
REMARK   67  A    between atoms: _153  and  _155
REMARK   68  A    between atoms: _155  and  _156
REMARK   69  A    between atoms: _158  and  _160
REMARK   70  A    between atoms: _160  and  _161
REMARK   71  A    between atoms: _163  and  _165
REMARK   72  A    between atoms: _165  and  _166
REMARK   73  A    between atoms: _165  and  _168
REMARK   74  A    between atoms: _171  and  _173
REMARK   75  A    between atoms: _173  and  _174
REMARK   76  A    between atoms: _173  and  _176
REMARK   77  A    between atoms: _179  and  _181
REMARK   78  A    between atoms: _181  and  _182
REMARK   79  A    between atoms: _181  and  _184
REMARK   80  A    between atoms: _184  and  _185
REMARK   81  A    between atoms: _188  and  _190
REMARK   82  A    between atoms: _190  and  _191
REMARK   83  A    between atoms: _190  and  _193
REMARK   84  A    between atoms: _193  and  _194
REMARK   85  A    between atoms: _198  and  _199
REMARK   86  A    between atoms: _204  and  _206
REMARK   87  A    between atoms: _206  and  _207
REMARK   88  A    between atoms: _210  and  _212
REMARK   89  A    between atoms: _212  and  _213
REMARK   90  A    between atoms: _212  and  _215
REMARK   91  A    between atoms: _215  and  _216
REMARK   92  A    between atoms: _221  and  _223
REMARK   93  A    between atoms: _223  and  _224
REMARK   94  A    between atoms: _223  and  _226
REMARK   95  A    between atoms: _226  and  _227
REMARK   96  A    between atoms: _230  and  _232
REMARK   97  A    between atoms: _232  and  _233
REMARK   98  A    between atoms: _232  and  _235
REMARK   99  A    between atoms: _235  and  _236
REMARK  100  A    between atoms: _239  and  _241
REMARK  101  A    between atoms: _241  and  _242
REMARK  102  A    between atoms: _244  and  _246
REMARK  103  A    between atoms: _246  and  _247
REMARK  104  A    between atoms: _246  and  _249
REMARK  105  A    between atoms: _249  and  _250
REMARK  106  A    between atoms: _250  and  _251
REMARK  107  A    between atoms: _251  and  _252
REMARK  108  A    between atoms: _261  and  _263
REMARK  109  A    between atoms: _263  and  _264
REMARK  110  A    between atoms: _263  and  _266
REMARK  111  A    between atoms: _266  and  _267
REMARK  112  A    between atoms: _267  and  _268
REMARK  113  A    between atoms: _268  and  _269
REMARK  114  A    between atoms: _278  and  _280
REMARK  115  A    between atoms: _280  and  _281
REMARK  116  A    between atoms: _280  and  _283
REMARK  117  A    between atoms: _283  and  _284
REMARK  118  A    between atoms: _287  and  _289
REMARK  119  A    between atoms: _289  and  _290
REMARK  120  A    between atoms: _289  and  _292
REMARK  121  A    between atoms: _292  and  _293
REMARK  122  A    between atoms: _296  and  _298
REMARK  123  A    between atoms: _298  and  _299
REMARK  124  A    between atoms: _298  and  _301
REMARK  125  A    between atoms: _301  and  _302
REMARK  126  A    between atoms: _305  and  _307
REMARK  127  A    between atoms: _307  and  _308
REMARK  128  A    between atoms: _307  and  _310
REMARK  129  A    between atoms: _310  and  _311
REMARK  130  A    between atoms: _314  and  _316
REMARK  131  A    between atoms: _316  and  _317
REMARK  132  A    between atoms: _316  and  _319
REMARK  133  A    between atoms: _319  and  _320
REMARK  134  A    between atoms: _323  and  _325
REMARK  135  A    between atoms: _325  and  _326
REMARK  136  A    between atoms: _328  and  _330
REMARK  137  A    between atoms: _330  and  _331
REMARK  138  A    between atoms: _334  and  _336
REMARK  139  A    between atoms: _336  and  _337
REMARK  140  A    between atoms: _336  and  _339
REMARK  141  A    between atoms: _339  and  _340
REMARK  142  A    between atoms: _343  and  _345
REMARK  143  A    between atoms: _345  and  _346
REMARK  144  A    between atoms: _345  and  _348
REMARK  145  A    between atoms: _348  and  _349
REMARK  146  A    between atoms: _352  and  _354
REMARK  147  A    between atoms: _354  and  _355
REMARK  148  A    between atoms: _354  and  _357
REMARK  149  A    between atoms: _357  and  _358
REMARK  150  A    between atoms: _361  and  _363
REMARK  151  A    between atoms: _363  and  _364
REMARK  152  A    between atoms: _363  and  _366
REMARK  153  A    between atoms: _369  and  _371
REMARK  154  A    between atoms: _371  and  _372
REMARK  155  A    between atoms: _371  and  _374
REMARK  156  A    between atoms: _374  and  _375
REMARK  157  A    between atoms: _375  and  _376
REMARK  158  A    between atoms: _379  and  _381
REMARK  159  A    between atoms: _381  and  _382
REMARK  160  A    between atoms: _381  and  _384
REMARK  161  A    between atoms: _384  and  _385
REMARK  162  A    between atoms: _385  and  _386
REMARK  163  A    between atoms: _386  and  _387
REMARK  164  A    between atoms: _387  and  _388
REMARK  165  A    between atoms: _392  and  _394
REMARK  166  A    between atoms: _394  and  _395
REMARK  167  A    between atoms: _394  and  _397
REMARK  168  A    between atoms: _397  and  _398
REMARK  169  A    between atoms: _398  and  _399
REMARK  170  A    between atoms: _401  and  _403
REMARK  171  A    between atoms: _403  and  _404
REMARK  172  A    between atoms: _403  and  _406
REMARK  173  A    between atoms: _406  and  _407
REMARK  174  A    between atoms: _410  and  _412
REMARK  175  A    between atoms: _412  and  _413
REMARK  176  A    between atoms: _412  and  _415
REMARK  177  A    between atoms: _418  and  _420
REMARK  178  A    between atoms: _420  and  _421
REMARK  179  A    between atoms: _423  and  _425
REMARK  180  A    between atoms: _425  and  _426
REMARK  181  A    between atoms: _425  and  _428
REMARK  182  A    between atoms: _428  and  _429
REMARK  183  A    between atoms: _432  and  _434
REMARK  184  A    between atoms: _434  and  _435
REMARK  185  A    between atoms: _437  and  _439
REMARK  186  A    between atoms: _439  and  _440
REMARK  187  A    between atoms: _442  and  _444
REMARK  188  A    between atoms: _444  and  _445
REMARK  189  A    between atoms: _444  and  _447
REMARK  190  A    between atoms: _447  and  _448
REMARK  191  A    between atoms: _454  and  _456
REMARK  192  A    between atoms: _456  and  _457
REMARK  193  A    between atoms: _456  and  _459
REMARK  194  A    between atoms: _462  and  _464
REMARK  195  A    between atoms: _464  and  _465
REMARK  196  A    between atoms: _464  and  _467
REMARK  197  A    between atoms: _470  and  _472
REMARK  198  A    between atoms: _472  and  _473
REMARK  199  A    between atoms: _472  and  _475
REMARK  200  A    between atoms: _475  and  _476
REMARK  201  A    between atoms: _480  and  _481
REMARK  202  A    between atoms: _486  and  _488
REMARK  203  A    between atoms: _488  and  _489
REMARK  204  A    between atoms: _488  and  _491
REMARK  205  A    between atoms: _491  and  _492
REMARK  206  A    between atoms: _496  and  _497
REMARK  207  A    between atoms: _502  and  _504
REMARK  208  A    between atoms: _504  and  _505
REMARK  209  A    between atoms: _508  and  _510
REMARK  210  A    between atoms: _510  and  _511
REMARK  211  A    between atoms: _510  and  _513
REMARK  212  A    between atoms: _513  and  _514
REMARK  213  A    between atoms: _519  and  _521
REMARK  214  A    between atoms: _521  and  _522
REMARK  215  A    between atoms: _521  and  _524
REMARK  216  A    between atoms: _524  and  _525
REMARK  217  A    between atoms: _528  and  _530
REMARK  218  A    between atoms: _530  and  _531
REMARK  219  A    between atoms: _530  and  _533
REMARK  220  A    between atoms: _533  and  _534
REMARK  221  A    between atoms: _537  and  _539
REMARK  222  A    between atoms: _539  and  _540
REMARK  223  A    between atoms: _542  and  _544
REMARK  224  A    between atoms: _544  and  _545
REMARK  225  A    between atoms: _544  and  _547
REMARK  226  A    between atoms: _547  and  _548
REMARK  227  A    between atoms: _548  and  _549
REMARK  228  A    between atoms: _549  and  _550
REMARK                            x       y       z     vdW  Elec       q    Type
REMARK                         _______ _______ _______ _____ _____    ______ ____
ROOT
ATOM      1  O   HOH     1      20.058  -3.199   8.370  0.00  0.00    +0.000 OA
ENDROOT
TORSDOF 0
REMARK  Name = ../refined-set-2016/3ekw/3ekw_pocket.pdb
REMARK  228 active torsions:
REMARK  status: ('A' for Active; 'I' for Inactive)
REMARK    1  A    between atoms: _1  and  _3
REMARK    2  A    between atoms: _3  and  _4
REMARK    3  A    between atoms: _3  and  _6
REMARK    4  A    between atoms: _6  and  _7
REMARK    5  A    between atoms: _7  and  _8
REMARK    6  A    between atoms: _8  and  _9
REMARK    7  A    between atoms: _18  and  _20
REMARK    8  A    between atoms: _20  and  _21
REMARK    9  A    between atoms: _20  and  _23
REMARK   10  A    between atoms: _23  and  _24
REMARK   11  A    between atoms: _27  and  _29
REMARK   12  A    between atoms: _29  and  _30
REMARK   13  A    between atoms: _29  and  _32
REMARK   14  A    between atoms: _32  and  _33
REMARK   15  A    between atoms: _36  and  _38
REMARK   16  A    between atoms: _38  and  _39
REMARK   17  A    between atoms: _38  and  _41
REMARK   18  A    between atoms: _41  and  _42
REMARK   19  A    between atoms: _45  and  _47
REMARK   20  A    between atoms: _47  and  _48
REMARK   21  A    between atoms: _47  and  _50
REMARK   22  A    between atoms: _50  and  _51
REMARK   23  A    between atoms: _54  and  _56
REMARK   24  A    between atoms: _56  and  _57
REMARK   25  A    between atoms: _59  and  _61
REMARK   26  A    between atoms: _61  and  _62
REMARK   27  A    between atoms: _65  and  _67
REMARK   28  A    between atoms: _67  and  _68
REMARK   29  A    between atoms: _67  and  _70
REMARK   30  A    between atoms: _70  and  _71
REMARK   31  A    between atoms: _74  and  _76
REMARK   32  A    between atoms: _76  and  _77
REMARK   33  A    between atoms: _76  and  _79
REMARK   34  A    between atoms: _79  and  _80
REMARK   35  A    between atoms: _83  and  _85
REMARK   36  A    between atoms: _85  and  _86
REMARK   37  A    between atoms: _85  and  _88
REMARK   38  A    between atoms: _88  and  _89
REMARK   39  A    between atoms: _92  and  _94
REMARK   40  A    between atoms: _94  and  _95
REMARK   41  A    between atoms: _94  and  _97
REMARK   42  A    between atoms: _100  and  _102
REMARK   43  A    between atoms: _102  and  _103
REMARK   44  A    between atoms: _102  and  _105
REMARK   45  A    between atoms: _105  and  _106
REMARK   46  A    between atoms: _106  and  _107
REMARK   47  A    between atoms: _107  and  _108
REMARK   48  A    between atoms: _108  and  _109
REMARK   49  A    between atoms: _113  and  _115
REMARK   50  A    between atoms: _115  and  _116
REMARK   51  A    between atoms: _115  and  _118
REMARK   52  A    between atoms: _118  and  _119
REMARK   53  A    between atoms: _119  and  _120
REMARK   54  A    between atoms: _122  and  _124
REMARK   55  A    between atoms: _124  and  _125
REMARK   56  A    between atoms: _124  and  _127
REMARK   57  A    between atoms: _127  and  _128
REMARK   58  A    between atoms: _131  and  _133
REMARK   59  A    between atoms: _133  and  _134
REMARK   60  A    between atoms: _133  and  _136
REMARK   61  A    between atoms: _139  and  _141
REMARK   62  A    between atoms: _141  and  _142
REMARK   63  A    between atoms: _144  and  _146
REMARK   64  A    between atoms: _146  and  _147
REMARK   65  A    between atoms: _146  and  _149
REMARK   66  A    between atoms: _149  and  _150
REMARK   67  A    between atoms: _153  and  _155
REMARK   68  A    between atoms: _155  and  _156
REMARK   69  A    between atoms: _158  and  _160
REMARK   70  A    between atoms: _160  and  _161
REMARK   71  A    between atoms: _163  and  _165
REMARK   72  A    between atoms: _165  and  _166
REMARK   73  A    between atoms: _165  and  _168
REMARK   74  A    between atoms: _171  and  _173
REMARK   75  A    between atoms: _173  and  _174
REMARK   76  A    between atoms: _173  and  _176
REMARK   77  A    between atoms: _179  and  _181
REMARK   78  A    between atoms: _181  and  _182
REMARK   79  A    between atoms: _181  and  _184
REMARK   80  A    between atoms: _184  and  _185
REMARK   81  A    between atoms: _188  and  _190
REMARK   82  A    between atoms: _190  and  _191
REMARK   83  A    between atoms: _190  and  _193
REMARK   84  A    between atoms: _193  and  _194
REMARK   85  A    between atoms: _198  and  _199
REMARK   86  A    between atoms: _204  and  _206
REMARK   87  A    between atoms: _206  and  _207
REMARK   88  A    between atoms: _210  and  _212
REMARK   89  A    between atoms: _212  and  _213
REMARK   90  A    between atoms: _212  and  _215
REMARK   91  A    between atoms: _215  and  _216
REMARK   92  A    between atoms: _221  and  _223
REMARK   93  A    between atoms: _223  and  _224
REMARK   94  A    between atoms: _223  and  _226
REMARK   95  A    between atoms: _226  and  _227
REMARK   96  A    between atoms: _230  and  _232
REMARK   97  A    between atoms: _232  and  _233
REMARK   98  A    between atoms: _232  and  _235
REMARK   99  A    between atoms: _235  and  _236
REMARK  100  A    between atoms: _239  and  _241
REMARK  101  A    between atoms: _241  and  _242
REMARK  102  A    between atoms: _244  and  _246
REMARK  103  A    between atoms: _246  and  _247
REMARK  104  A    between atoms: _246  and  _249
REMARK  105  A    between atoms: _249  and  _250
REMARK  106  A    between atoms: _250  and  _251
REMARK  107  A    between atoms: _251  and  _252
REMARK  108  A    between atoms: _261  and  _263
REMARK  109  A    between atoms: _263  and  _264
REMARK  110  A    between atoms: _263  and  _266
REMARK  111  A    between atoms: _266  and  _267
REMARK  112  A    between atoms: _267  and  _268
REMARK  113  A    between atoms: _268  and  _269
REMARK  114  A    between atoms: _278  and  _280
REMARK  115  A    between atoms: _280  and  _281
REMARK  116  A    between atoms: _280  and  _283
REMARK  117  A    between atoms: _283  and  _284
REMARK  118  A    between atoms: _287  and  _289
REMARK  119  A    between atoms: _289  and  _290
REMARK  120  A    between atoms: _289  and  _292
REMARK  121  A    between atoms: _292  and  _293
REMARK  122  A    between atoms: _296  and  _298
REMARK  123  A    between atoms: _298  and  _299
REMARK  124  A    between atoms: _298  and  _301
REMARK  125  A    between atoms: _301  and  _302
REMARK  126  A    between atoms: _305  and  _307
REMARK  127  A    between atoms: _307  and  _308
REMARK  128  A    between atoms: _307  and  _310
REMARK  129  A    between atoms: _310  and  _311
REMARK  130  A    between atoms: _314  and  _316
REMARK  131  A    between atoms: _316  and  _317
REMARK  132  A    between atoms: _316  and  _319
REMARK  133  A    between atoms: _319  and  _320
REMARK  134  A    between atoms: _323  and  _325
REMARK  135  A    between atoms: _325  and  _326
REMARK  136  A    between atoms: _328  and  _330
REMARK  137  A    between atoms: _330  and  _331
REMARK  138  A    between atoms: _334  and  _336
REMARK  139  A    between atoms: _336  and  _337
REMARK  140  A    between atoms: _336  and  _339
REMARK  141  A    between atoms: _339  and  _340
REMARK  142  A    between atoms: _343  and  _345
REMARK  143  A    between atoms: _345  and  _346
REMARK  144  A    between atoms: _345  and  _348
REMARK  145  A    between atoms: _348  and  _349
REMARK  146  A    between atoms: _352  and  _354
REMARK  147  A    between atoms: _354  and  _355
REMARK  148  A    between atoms: _354  and  _357
REMARK  149  A    between atoms: _357  and  _358
REMARK  150  A    between atoms: _361  and  _363
REMARK  151  A    between atoms: _363  and  _364
REMARK  152  A    between atoms: _363  and  _366
REMARK  153  A    between atoms: _369  and  _371
REMARK  154  A    between atoms: _371  and  _372
REMARK  155  A    between atoms: _371  and  _374
REMARK  156  A    between atoms: _374  and  _375
REMARK  157  A    between atoms: _375  and  _376
REMARK  158  A    between atoms: _379  and  _381
REMARK  159  A    between atoms: _381  and  _382
REMARK  160  A    between atoms: _381  and  _384
REMARK  161  A    between atoms: _384  and  _385
REMARK  162  A    between atoms: _385  and  _386
REMARK  163  A    between atoms: _386  and  _387
REMARK  164  A    between atoms: _387  and  _388
REMARK  165  A    between atoms: _392  and  _394
REMARK  166  A    between atoms: _394  and  _395
REMARK  167  A    between atoms: _394  and  _397
REMARK  168  A    between atoms: _397  and  _398
REMARK  169  A    between atoms: _398  and  _399
REMARK  170  A    between atoms: _401  and  _403
REMARK  171  A    between atoms: _403  and  _404
REMARK  172  A    between atoms: _403  and  _406
REMARK  173  A    between atoms: _406  and  _407
REMARK  174  A    between atoms: _410  and  _412
REMARK  175  A    between atoms: _412  and  _413
REMARK  176  A    between atoms: _412  and  _415
REMARK  177  A    between atoms: _418  and  _420
REMARK  178  A    between atoms: _420  and  _421
REMARK  179  A    between atoms: _423  and  _425
REMARK  180  A    between atoms: _425  and  _426
REMARK  181  A    between atoms: _425  and  _428
REMARK  182  A    between atoms: _428  and  _429
REMARK  183  A    between atoms: _432  and  _434
REMARK  184  A    between atoms: _434  and  _435
REMARK  185  A    between atoms: _437  and  _439
REMARK  186  A    between atoms: _439  and  _440
REMARK  187  A    between atoms: _442  and  _444
REMARK  188  A    between atoms: _444  and  _445
REMARK  189  A    between atoms: _444  and  _447
REMARK  190  A    between atoms: _447  and  _448
REMARK  191  A    between atoms: _454  and  _456
REMARK  192  A    between atoms: _456  and  _457
REMARK  193  A    between atoms: _456  and  _459
REMARK  194  A    between atoms: _462  and  _464
REMARK  195  A    between atoms: _464  and  _465
REMARK  196  A    between atoms: _464  and  _467
REMARK  197  A    between atoms: _470  and  _472
REMARK  198  A    between atoms: _472  and  _473
REMARK  199  A    between atoms: _472  and  _475
REMARK  200  A    between atoms: _475  and  _476
REMARK  201  A    between atoms: _480  and  _481
REMARK  202  A    between atoms: _486  and  _488
REMARK  203  A    between atoms: _488  and  _489
REMARK  204  A    between atoms: _488  and  _491
REMARK  205  A    between atoms: _491  and  _492
REMARK  206  A    between atoms: _496  and  _497
REMARK  207  A    between atoms: _502  and  _504
REMARK  208  A    between atoms: _504  and  _505
REMARK  209  A    between atoms: _508  and  _510
REMARK  210  A    between atoms: _510  and  _511
REMARK  211  A    between atoms: _510  and  _513
REMARK  212  A    between atoms: _513  and  _514
REMARK  213  A    between atoms: _519  and  _521
REMARK  214  A    between atoms: _521  and  _522
REMARK  215  A    between atoms: _521  and  _524
REMARK  216  A    between atoms: _524  and  _525
REMARK  217  A    between atoms: _528  and  _530
REMARK  218  A    between atoms: _530  and  _531
REMARK  219  A    between atoms: _530  and  _533
REMARK  220  A    between atoms: _533  and  _534
REMARK  221  A    between atoms: _537  and  _539
REMARK  222  A    between atoms: _539  and  _540
REMARK  223  A    between atoms: _542  and  _544
REMARK  224  A    between atoms: _544  and  _545
REMARK  225  A    between atoms: _544  and  _547
REMARK  226  A    between atoms: _547  and  _548
REMARK  227  A    between atoms: _548  and  _549
REMARK  228  A    between atoms: _549  and  _550
REMARK                            x       y       z     vdW  Elec       q    Type
REMARK                         _______ _______ _______ _____ _____    ______ ____
ROOT
ATOM      1  O   HOH     1      16.977  -8.839  15.098  0.00  0.00    +0.000 OA
ENDROOT
TORSDOF 0
REMARK  Name = ../refined-set-2016/3ekw/3ekw_pocket.pdb
REMARK  228 active torsions:
REMARK  status: ('A' for Active; 'I' for Inactive)
REMARK    1  A    between atoms: _1  and  _3
REMARK    2  A    between atoms: _3  and  _4
REMARK    3  A    between atoms: _3  and  _6
REMARK    4  A    between atoms: _6  and  _7
REMARK    5  A    between atoms: _7  and  _8
REMARK    6  A    between atoms: _8  and  _9
REMARK    7  A    between atoms: _18  and  _20
REMARK    8  A    between atoms: _20  and  _21
REMARK    9  A    between atoms: _20  and  _23
REMARK   10  A    between atoms: _23  and  _24
REMARK   11  A    between atoms: _27  and  _29
REMARK   12  A    between atoms: _29  and  _30
REMARK   13  A    between atoms: _29  and  _32
REMARK   14  A    between atoms: _32  and  _33
REMARK   15  A    between atoms: _36  and  _38
REMARK   16  A    between atoms: _38  and  _39
REMARK   17  A    between atoms: _38  and  _41
REMARK   18  A    between atoms: _41  and  _42
REMARK   19  A    between atoms: _45  and  _47
REMARK   20  A    between atoms: _47  and  _48
REMARK   21  A    between atoms: _47  and  _50
REMARK   22  A    between atoms: _50  and  _51
REMARK   23  A    between atoms: _54  and  _56
REMARK   24  A    between atoms: _56  and  _57
REMARK   25  A    between atoms: _59  and  _61
REMARK   26  A    between atoms: _61  and  _62
REMARK   27  A    between atoms: _65  and  _67
REMARK   28  A    between atoms: _67  and  _68
REMARK   29  A    between atoms: _67  and  _70
REMARK   30  A    between atoms: _70  and  _71
REMARK   31  A    between atoms: _74  and  _76
REMARK   32  A    between atoms: _76  and  _77
REMARK   33  A    between atoms: _76  and  _79
REMARK   34  A    between atoms: _79  and  _80
REMARK   35  A    between atoms: _83  and  _85
REMARK   36  A    between atoms: _85  and  _86
REMARK   37  A    between atoms: _85  and  _88
REMARK   38  A    between atoms: _88  and  _89
REMARK   39  A    between atoms: _92  and  _94
REMARK   40  A    between atoms: _94  and  _95
REMARK   41  A    between atoms: _94  and  _97
REMARK   42  A    between atoms: _100  and  _102
REMARK   43  A    between atoms: _102  and  _103
REMARK   44  A    between atoms: _102  and  _105
REMARK   45  A    between atoms: _105  and  _106
REMARK   46  A    between atoms: _106  and  _107
REMARK   47  A    between atoms: _107  and  _108
REMARK   48  A    between atoms: _108  and  _109
REMARK   49  A    between atoms: _113  and  _115
REMARK   50  A    between atoms: _115  and  _116
REMARK   51  A    between atoms: _115  and  _118
REMARK   52  A    between atoms: _118  and  _119
REMARK   53  A    between atoms: _119  and  _120
REMARK   54  A    between atoms: _122  and  _124
REMARK   55  A    between atoms: _124  and  _125
REMARK   56  A    between atoms: _124  and  _127
REMARK   57  A    between atoms: _127  and  _128
REMARK   58  A    between atoms: _131  and  _133
REMARK   59  A    between atoms: _133  and  _134
REMARK   60  A    between atoms: _133  and  _136
REMARK   61  A    between atoms: _139  and  _141
REMARK   62  A    between atoms: _141  and  _142
REMARK   63  A    between atoms: _144  and  _146
REMARK   64  A    between atoms: _146  and  _147
REMARK   65  A    between atoms: _146  and  _149
REMARK   66  A    between atoms: _149  and  _150
REMARK   67  A    between atoms: _153  and  _155
REMARK   68  A    between atoms: _155  and  _156
REMARK   69  A    between atoms: _158  and  _160
REMARK   70  A    between atoms: _160  and  _161
REMARK   71  A    between atoms: _163  and  _165
REMARK   72  A    between atoms: _165  and  _166
REMARK   73  A    between atoms: _165  and  _168
REMARK   74  A    between atoms: _171  and  _173
REMARK   75  A    between atoms: _173  and  _174
REMARK   76  A    between atoms: _173  and  _176
REMARK   77  A    between atoms: _179  and  _181
REMARK   78  A    between atoms: _181  and  _182
REMARK   79  A    between atoms: _181  and  _184
REMARK   80  A    between atoms: _184  and  _185
REMARK   81  A    between atoms: _188  and  _190
REMARK   82  A    between atoms: _190  and  _191
REMARK   83  A    between atoms: _190  and  _193
REMARK   84  A    between atoms: _193  and  _194
REMARK   85  A    between atoms: _198  and  _199
REMARK   86  A    between atoms: _204  and  _206
REMARK   87  A    between atoms: _206  and  _207
REMARK   88  A    between atoms: _210  and  _212
REMARK   89  A    between atoms: _212  and  _213
REMARK   90  A    between atoms: _212  and  _215
REMARK   91  A    between atoms: _215  and  _216
REMARK   92  A    between atoms: _221  and  _223
REMARK   93  A    between atoms: _223  and  _224
REMARK   94  A    between atoms: _223  and  _226
REMARK   95  A    between atoms: _226  and  _227
REMARK   96  A    between atoms: _230  and  _232
REMARK   97  A    between atoms: _232  and  _233
REMARK   98  A    between atoms: _232  and  _235
REMARK   99  A    between atoms: _235  and  _236
REMARK  100  A    between atoms: _239  and  _241
REMARK  101  A    between atoms: _241  and  _242
REMARK  102  A    between atoms: _244  and  _246
REMARK  103  A    between atoms: _246  and  _247
REMARK  104  A    between atoms: _246  and  _249
REMARK  105  A    between atoms: _249  and  _250
REMARK  106  A    between atoms: _250  and  _251
REMARK  107  A    between atoms: _251  and  _252
REMARK  108  A    between atoms: _261  and  _263
REMARK  109  A    between atoms: _263  and  _264
REMARK  110  A    between atoms: _263  and  _266
REMARK  111  A    between atoms: _266  and  _267
REMARK  112  A    between atoms: _267  and  _268
REMARK  113  A    between atoms: _268  and  _269
REMARK  114  A    between atoms: _278  and  _280
REMARK  115  A    between atoms: _280  and  _281
REMARK  116  A    between atoms: _280  and  _283
REMARK  117  A    between atoms: _283  and  _284
REMARK  118  A    between atoms: _287  and  _289
REMARK  119  A    between atoms: _289  and  _290
REMARK  120  A    between atoms: _289  and  _292
REMARK  121  A    between atoms: _292  and  _293
REMARK  122  A    between atoms: _296  and  _298
REMARK  123  A    between atoms: _298  and  _299
REMARK  124  A    between atoms: _298  and  _301
REMARK  125  A    between atoms: _301  and  _302
REMARK  126  A    between atoms: _305  and  _307
REMARK  127  A    between atoms: _307  and  _308
REMARK  128  A    between atoms: _307  and  _310
REMARK  129  A    between atoms: _310  and  _311
REMARK  130  A    between atoms: _314  and  _316
REMARK  131  A    between atoms: _316  and  _317
REMARK  132  A    between atoms: _316  and  _319
REMARK  133  A    between atoms: _319  and  _320
REMARK  134  A    between atoms: _323  and  _325
REMARK  135  A    between atoms: _325  and  _326
REMARK  136  A    between atoms: _328  and  _330
REMARK  137  A    between atoms: _330  and  _331
REMARK  138  A    between atoms: _334  and  _336
REMARK  139  A    between atoms: _336  and  _337
REMARK  140  A    between atoms: _336  and  _339
REMARK  141  A    between atoms: _339  and  _340
REMARK  142  A    between atoms: _343  and  _345
REMARK  143  A    between atoms: _345  and  _346
REMARK  144  A    between atoms: _345  and  _348
REMARK  145  A    between atoms: _348  and  _349
REMARK  146  A    between atoms: _352  and  _354
REMARK  147  A    between atoms: _354  and  _355
REMARK  148  A    between atoms: _354  and  _357
REMARK  149  A    between atoms: _357  and  _358
REMARK  150  A    between atoms: _361  and  _363
REMARK  151  A    between atoms: _363  and  _364
REMARK  152  A    between atoms: _363  and  _366
REMARK  153  A    between atoms: _369  and  _371
REMARK  154  A    between atoms: _371  and  _372
REMARK  155  A    between atoms: _371  and  _374
REMARK  156  A    between atoms: _374  and  _375
REMARK  157  A    between atoms: _375  and  _376
REMARK  158  A    between atoms: _379  and  _381
REMARK  159  A    between atoms: _381  and  _382
REMARK  160  A    between atoms: _381  and  _384
REMARK  161  A    between atoms: _384  and  _385
REMARK  162  A    between atoms: _385  and  _386
REMARK  163  A    between atoms: _386  and  _387
REMARK  164  A    between atoms: _387  and  _388
REMARK  165  A    between atoms: _392  and  _394
REMARK  166  A    between atoms: _394  and  _395
REMARK  167  A    between atoms: _394  and  _397
REMARK  168  A    between atoms: _397  and  _398
REMARK  169  A    between atoms: _398  and  _399
REMARK  170  A    between atoms: _401  and  _403
REMARK  171  A    between atoms: _403  and  _404
REMARK  172  A    between atoms: _403  and  _406
REMARK  173  A    between atoms: _406  and  _407
REMARK  174  A    between atoms: _410  and  _412
REMARK  175  A    between atoms: _412  and  _413
REMARK  176  A    between atoms: _412  and  _415
REMARK  177  A    between atoms: _418  and  _420
REMARK  178  A    between atoms: _420  and  _421
REMARK  179  A    between atoms: _423  and  _425
REMARK  180  A    between atoms: _425  and  _426
REMARK  181  A    between atoms: _425  and  _428
REMARK  182  A    between atoms: _428  and  _429
REMARK  183  A    between atoms: _432  and  _434
REMARK  184  A    between atoms: _434  and  _435
REMARK  185  A    between atoms: _437  and  _439
REMARK  186  A    between atoms: _439  and  _440
REMARK  187  A    between atoms: _442  and  _444
REMARK  188  A    between atoms: _444  and  _445
REMARK  189  A    between atoms: _444  and  _447
REMARK  190  A    between atoms: _447  and  _448
REMARK  191  A    between atoms: _454  and  _456
REMARK  192  A    between atoms: _456  and  _457
REMARK  193  A    between atoms: _456  and  _459
REMARK  194  A    between atoms: _462  and  _464
REMARK  195  A    between atoms: _464  and  _465
REMARK  196  A    between atoms: _464  and  _467
REMARK  197  A    between atoms: _470  and  _472
REMARK  198  A    between atoms: _472  and  _473
REMARK  199  A    between atoms: _472  and  _475
REMARK  200  A    between atoms: _475  and  _476
REMARK  201  A    between atoms: _480  and  _481
REMARK  202  A    between atoms: _486  and  _488
REMARK  203  A    between atoms: _488  and  _489
REMARK  204  A    between atoms: _488  and  _491
REMARK  205  A    between atoms: _491  and  _492
REMARK  206  A    between atoms: _496  and  _497
REMARK  207  A    between atoms: _502  and  _504
REMARK  208  A    between atoms: _504  and  _505
REMARK  209  A    between atoms: _508  and  _510
REMARK  210  A    between atoms: _510  and  _511
REMARK  211  A    between atoms: _510  and  _513
REMARK  212  A    between atoms: _513  and  _514
REMARK  213  A    between atoms: _519  and  _521
REMARK  214  A    between atoms: _521  and  _522
REMARK  215  A    between atoms: _521  and  _524
REMARK  216  A    between atoms: _524  and  _525
REMARK  217  A    between atoms: _528  and  _530
REMARK  218  A    between atoms: _530  and  _531
REMARK  219  A    between atoms: _530  and  _533
REMARK  220  A    between atoms: _533  and  _534
REMARK  221  A    between atoms: _537  and  _539
REMARK  222  A    between atoms: _539  and  _540
REMARK  223  A    between atoms: _542  and  _544
REMARK  224  A    between atoms: _544  and  _545
REMARK  225  A    between atoms: _544  and  _547
REMARK  226  A    between atoms: _547  and  _548
REMARK  227  A    between atoms: _548  and  _549
REMARK  228  A    between atoms: _549  and  _550
REMARK                            x       y       z     vdW  Elec       q    Type
REMARK                         _______ _______ _______ _____ _____    ______ ____
ROOT
ATOM      1  O   HOH     1      15.309  -8.298  13.226  0.00  0.00    +0.000 OA
ENDROOT
TORSDOF 0
REMARK  Name = ../refined-set-2016/3ekw/3ekw_pocket.pdb
REMARK  228 active torsions:
REMARK  status: ('A' for Active; 'I' for Inactive)
REMARK    1  A    between atoms: _1  and  _3
REMARK    2  A    between atoms: _3  and  _4
REMARK    3  A    between atoms: _3  and  _6
REMARK    4  A    between atoms: _6  and  _7
REMARK    5  A    between atoms: _7  and  _8
REMARK    6  A    between atoms: _8  and  _9
REMARK    7  A    between atoms: _18  and  _20
REMARK    8  A    between atoms: _20  and  _21
REMARK    9  A    between atoms: _20  and  _23
REMARK   10  A    between atoms: _23  and  _24
REMARK   11  A    between atoms: _27  and  _29
REMARK   12  A    between atoms: _29  and  _30
REMARK   13  A    between atoms: _29  and  _32
REMARK   14  A    between atoms: _32  and  _33
REMARK   15  A    between atoms: _36  and  _38
REMARK   16  A    between atoms: _38  and  _39
REMARK   17  A    between atoms: _38  and  _41
REMARK   18  A    between atoms: _41  and  _42
REMARK   19  A    between atoms: _45  and  _47
REMARK   20  A    between atoms: _47  and  _48
REMARK   21  A    between atoms: _47  and  _50
REMARK   22  A    between atoms: _50  and  _51
REMARK   23  A    between atoms: _54  and  _56
REMARK   24  A    between atoms: _56  and  _57
REMARK   25  A    between atoms: _59  and  _61
REMARK   26  A    between atoms: _61  and  _62
REMARK   27  A    between atoms: _65  and  _67
REMARK   28  A    between atoms: _67  and  _68
REMARK   29  A    between atoms: _67  and  _70
REMARK   30  A    between atoms: _70  and  _71
REMARK   31  A    between atoms: _74  and  _76
REMARK   32  A    between atoms: _76  and  _77
REMARK   33  A    between atoms: _76  and  _79
REMARK   34  A    between atoms: _79  and  _80
REMARK   35  A    between atoms: _83  and  _85
REMARK   36  A    between atoms: _85  and  _86
REMARK   37  A    between atoms: _85  and  _88
REMARK   38  A    between atoms: _88  and  _89
REMARK   39  A    between atoms: _92  and  _94
REMARK   40  A    between atoms: _94  and  _95
REMARK   41  A    between atoms: _94  and  _97
REMARK   42  A    between atoms: _100  and  _102
REMARK   43  A    between atoms: _102  and  _103
REMARK   44  A    between atoms: _102  and  _105
REMARK   45  A    between atoms: _105  and  _106
REMARK   46  A    between atoms: _106  and  _107
REMARK   47  A    between atoms: _107  and  _108
REMARK   48  A    between atoms: _108  and  _109
REMARK   49  A    between atoms: _113  and  _115
REMARK   50  A    between atoms: _115  and  _116
REMARK   51  A    between atoms: _115  and  _118
REMARK   52  A    between atoms: _118  and  _119
REMARK   53  A    between atoms: _119  and  _120
REMARK   54  A    between atoms: _122  and  _124
REMARK   55  A    between atoms: _124  and  _125
REMARK   56  A    between atoms: _124  and  _127
REMARK   57  A    between atoms: _127  and  _128
REMARK   58  A    between atoms: _131  and  _133
REMARK   59  A    between atoms: _133  and  _134
REMARK   60  A    between atoms: _133  and  _136
REMARK   61  A    between atoms: _139  and  _141
REMARK   62  A    between atoms: _141  and  _142
REMARK   63  A    between atoms: _144  and  _146
REMARK   64  A    between atoms: _146  and  _147
REMARK   65  A    between atoms: _146  and  _149
REMARK   66  A    between atoms: _149  and  _150
REMARK   67  A    between atoms: _153  and  _155
REMARK   68  A    between atoms: _155  and  _156
REMARK   69  A    between atoms: _158  and  _160
REMARK   70  A    between atoms: _160  and  _161
REMARK   71  A    between atoms: _163  and  _165
REMARK   72  A    between atoms: _165  and  _166
REMARK   73  A    between atoms: _165  and  _168
REMARK   74  A    between atoms: _171  and  _173
REMARK   75  A    between atoms: _173  and  _174
REMARK   76  A    between atoms: _173  and  _176
REMARK   77  A    between atoms: _179  and  _181
REMARK   78  A    between atoms: _181  and  _182
REMARK   79  A    between atoms: _181  and  _184
REMARK   80  A    between atoms: _184  and  _185
REMARK   81  A    between atoms: _188  and  _190
REMARK   82  A    between atoms: _190  and  _191
REMARK   83  A    between atoms: _190  and  _193
REMARK   84  A    between atoms: _193  and  _194
REMARK   85  A    between atoms: _198  and  _199
REMARK   86  A    between atoms: _204  and  _206
REMARK   87  A    between atoms: _206  and  _207
REMARK   88  A    between atoms: _210  and  _212
REMARK   89  A    between atoms: _212  and  _213
REMARK   90  A    between atoms: _212  and  _215
REMARK   91  A    between atoms: _215  and  _216
REMARK   92  A    between atoms: _221  and  _223
REMARK   93  A    between atoms: _223  and  _224
REMARK   94  A    between atoms: _223  and  _226
REMARK   95  A    between atoms: _226  and  _227
REMARK   96  A    between atoms: _230  and  _232
REMARK   97  A    between atoms: _232  and  _233
REMARK   98  A    between atoms: _232  and  _235
REMARK   99  A    between atoms: _235  and  _236
REMARK  100  A    between atoms: _239  and  _241
REMARK  101  A    between atoms: _241  and  _242
REMARK  102  A    between atoms: _244  and  _246
REMARK  103  A    between atoms: _246  and  _247
REMARK  104  A    between atoms: _246  and  _249
REMARK  105  A    between atoms: _249  and  _250
REMARK  106  A    between atoms: _250  and  _251
REMARK  107  A    between atoms: _251  and  _252
REMARK  108  A    between atoms: _261  and  _263
REMARK  109  A    between atoms: _263  and  _264
REMARK  110  A    between atoms: _263  and  _266
REMARK  111  A    between atoms: _266  and  _267
REMARK  112  A    between atoms: _267  and  _268
REMARK  113  A    between atoms: _268  and  _269
REMARK  114  A    between atoms: _278  and  _280
REMARK  115  A    between atoms: _280  and  _281
REMARK  116  A    between atoms: _280  and  _283
REMARK  117  A    between atoms: _283  and  _284
REMARK  118  A    between atoms: _287  and  _289
REMARK  119  A    between atoms: _289  and  _290
REMARK  120  A    between atoms: _289  and  _292
REMARK  121  A    between atoms: _292  and  _293
REMARK  122  A    between atoms: _296  and  _298
REMARK  123  A    between atoms: _298  and  _299
REMARK  124  A    between atoms: _298  and  _301
REMARK  125  A    between atoms: _301  and  _302
REMARK  126  A    between atoms: _305  and  _307
REMARK  127  A    between atoms: _307  and  _308
REMARK  128  A    between atoms: _307  and  _310
REMARK  129  A    between atoms: _310  and  _311
REMARK  130  A    between atoms: _314  and  _316
REMARK  131  A    between atoms: _316  and  _317
REMARK  132  A    between atoms: _316  and  _319
REMARK  133  A    between atoms: _319  and  _320
REMARK  134  A    between atoms: _323  and  _325
REMARK  135  A    between atoms: _325  and  _326
REMARK  136  A    between atoms: _328  and  _330
REMARK  137  A    between atoms: _330  and  _331
REMARK  138  A    between atoms: _334  and  _336
REMARK  139  A    between atoms: _336  and  _337
REMARK  140  A    between atoms: _336  and  _339
REMARK  141  A    between atoms: _339  and  _340
REMARK  142  A    between atoms: _343  and  _345
REMARK  143  A    between atoms: _345  and  _346
REMARK  144  A    between atoms: _345  and  _348
REMARK  145  A    between atoms: _348  and  _349
REMARK  146  A    between atoms: _352  and  _354
REMARK  147  A    between atoms: _354  and  _355
REMARK  148  A    between atoms: _354  and  _357
REMARK  149  A    between atoms: _357  and  _358
REMARK  150  A    between atoms: _361  and  _363
REMARK  151  A    between atoms: _363  and  _364
REMARK  152  A    between atoms: _363  and  _366
REMARK  153  A    between atoms: _369  and  _371
REMARK  154  A    between atoms: _371  and  _372
REMARK  155  A    between atoms: _371  and  _374
REMARK  156  A    between atoms: _374  and  _375
REMARK  157  A    between atoms: _375  and  _376
REMARK  158  A    between atoms: _379  and  _381
REMARK  159  A    between atoms: _381  and  _382
REMARK  160  A    between atoms: _381  and  _384
REMARK  161  A    between atoms: _384  and  _385
REMARK  162  A    between atoms: _385  and  _386
REMARK  163  A    between atoms: _386  and  _387
REMARK  164  A    between atoms: _387  and  _388
REMARK  165  A    between atoms: _392  and  _394
REMARK  166  A    between atoms: _394  and  _395
REMARK  167  A    between atoms: _394  and  _397
REMARK  168  A    between atoms: _397  and  _398
REMARK  169  A    between atoms: _398  and  _399
REMARK  170  A    between atoms: _401  and  _403
REMARK  171  A    between atoms: _403  and  _404
REMARK  172  A    between atoms: _403  and  _406
REMARK  173  A    between atoms: _406  and  _407
REMARK  174  A    between atoms: _410  and  _412
REMARK  175  A    between atoms: _412  and  _413
REMARK  176  A    between atoms: _412  and  _415
REMARK  177  A    between atoms: _418  and  _420
REMARK  178  A    between atoms: _420  and  _421
REMARK  179  A    between atoms: _423  and  _425
REMARK  180  A    between atoms: _425  and  _426
REMARK  181  A    between atoms: _425  and  _428
REMARK  182  A    between atoms: _428  and  _429
REMARK  183  A    between atoms: _432  and  _434
REMARK  184  A    between atoms: _434  and  _435
REMARK  185  A    between atoms: _437  and  _439
REMARK  186  A    between atoms: _439  and  _440
REMARK  187  A    between atoms: _442  and  _444
REMARK  188  A    between atoms: _444  and  _445
REMARK  189  A    between atoms: _444  and  _447
REMARK  190  A    between atoms: _447  and  _448
REMARK  191  A    between atoms: _454  and  _456
REMARK  192  A    between atoms: _456  and  _457
REMARK  193  A    between atoms: _456  and  _459
REMARK  194  A    between atoms: _462  and  _464
REMARK  195  A    between atoms: _464  and  _465
REMARK  196  A    between atoms: _464  and  _467
REMARK  197  A    between atoms: _470  and  _472
REMARK  198  A    between atoms: _472  and  _473
REMARK  199  A    between atoms: _472  and  _475
REMARK  200  A    between atoms: _475  and  _476
REMARK  201  A    between atoms: _480  and  _481
REMARK  202  A    between atoms: _486  and  _488
REMARK  203  A    between atoms: _488  and  _489
REMARK  204  A    between atoms: _488  and  _491
REMARK  205  A    between atoms: _491  and  _492
REMARK  206  A    between atoms: _496  and  _497
REMARK  207  A    between atoms: _502  and  _504
REMARK  208  A    between atoms: _504  and  _505
REMARK  209  A    between atoms: _508  and  _510
REMARK  210  A    between atoms: _510  and  _511
REMARK  211  A    between atoms: _510  and  _513
REMARK  212  A    between atoms: _513  and  _514
REMARK  213  A    between atoms: _519  and  _521
REMARK  214  A    between atoms: _521  and  _522
REMARK  215  A    between atoms: _521  and  _524
REMARK  216  A    between atoms: _524  and  _525
REMARK  217  A    between atoms: _528  and  _530
REMARK  218  A    between atoms: _530  and  _531
REMARK  219  A    between atoms: _530  and  _533
REMARK  220  A    between atoms: _533  and  _534
REMARK  221  A    between atoms: _537  and  _539
REMARK  222  A    between atoms: _539  and  _540
REMARK  223  A    between atoms: _542  and  _544
REMARK  224  A    between atoms: _544  and  _545
REMARK  225  A    between atoms: _544  and  _547
REMARK  226  A    between atoms: _547  and  _548
REMARK  227  A    between atoms: _548  and  _549
REMARK  228  A    between atoms: _549  and  _550
REMARK                            x       y       z     vdW  Elec       q    Type
REMARK                         _______ _______ _______ _____ _____    ______ ____
ROOT
ATOM      1  O   HOH     1      13.755  -6.300   6.413  0.00  0.00    +0.000 OA
ENDROOT
TORSDOF 0
REMARK  Name = ../refined-set-2016/3ekw/3ekw_pocket.pdb
REMARK  228 active torsions:
REMARK  status: ('A' for Active; 'I' for Inactive)
REMARK    1  A    between atoms: _1  and  _3
REMARK    2  A    between atoms: _3  and  _4
REMARK    3  A    between atoms: _3  and  _6
REMARK    4  A    between atoms: _6  and  _7
REMARK    5  A    between atoms: _7  and  _8
REMARK    6  A    between atoms: _8  and  _9
REMARK    7  A    between atoms: _18  and  _20
REMARK    8  A    between atoms: _20  and  _21
REMARK    9  A    between atoms: _20  and  _23
REMARK   10  A    between atoms: _23  and  _24
REMARK   11  A    between atoms: _27  and  _29
REMARK   12  A    between atoms: _29  and  _30
REMARK   13  A    between atoms: _29  and  _32
REMARK   14  A    between atoms: _32  and  _33
REMARK   15  A    between atoms: _36  and  _38
REMARK   16  A    between atoms: _38  and  _39
REMARK   17  A    between atoms: _38  and  _41
REMARK   18  A    between atoms: _41  and  _42
REMARK   19  A    between atoms: _45  and  _47
REMARK   20  A    between atoms: _47  and  _48
REMARK   21  A    between atoms: _47  and  _50
REMARK   22  A    between atoms: _50  and  _51
REMARK   23  A    between atoms: _54  and  _56
REMARK   24  A    between atoms: _56  and  _57
REMARK   25  A    between atoms: _59  and  _61
REMARK   26  A    between atoms: _61  and  _62
REMARK   27  A    between atoms: _65  and  _67
REMARK   28  A    between atoms: _67  and  _68
REMARK   29  A    between atoms: _67  and  _70
REMARK   30  A    between atoms: _70  and  _71
REMARK   31  A    between atoms: _74  and  _76
REMARK   32  A    between atoms: _76  and  _77
REMARK   33  A    between atoms: _76  and  _79
REMARK   34  A    between atoms: _79  and  _80
REMARK   35  A    between atoms: _83  and  _85
REMARK   36  A    between atoms: _85  and  _86
REMARK   37  A    between atoms: _85  and  _88
REMARK   38  A    between atoms: _88  and  _89
REMARK   39  A    between atoms: _92  and  _94
REMARK   40  A    between atoms: _94  and  _95
REMARK   41  A    between atoms: _94  and  _97
REMARK   42  A    between atoms: _100  and  _102
REMARK   43  A    between atoms: _102  and  _103
REMARK   44  A    between atoms: _102  and  _105
REMARK   45  A    between atoms: _105  and  _106
REMARK   46  A    between atoms: _106  and  _107
REMARK   47  A    between atoms: _107  and  _108
REMARK   48  A    between atoms: _108  and  _109
REMARK   49  A    between atoms: _113  and  _115
REMARK   50  A    between atoms: _115  and  _116
REMARK   51  A    between atoms: _115  and  _118
REMARK   52  A    between atoms: _118  and  _119
REMARK   53  A    between atoms: _119  and  _120
REMARK   54  A    between atoms: _122  and  _124
REMARK   55  A    between atoms: _124  and  _125
REMARK   56  A    between atoms: _124  and  _127
REMARK   57  A    between atoms: _127  and  _128
REMARK   58  A    between atoms: _131  and  _133
REMARK   59  A    between atoms: _133  and  _134
REMARK   60  A    between atoms: _133  and  _136
REMARK   61  A    between atoms: _139  and  _141
REMARK   62  A    between atoms: _141  and  _142
REMARK   63  A    between atoms: _144  and  _146
REMARK   64  A    between atoms: _146  and  _147
REMARK   65  A    between atoms: _146  and  _149
REMARK   66  A    between atoms: _149  and  _150
REMARK   67  A    between atoms: _153  and  _155
REMARK   68  A    between atoms: _155  and  _156
REMARK   69  A    between atoms: _158  and  _160
REMARK   70  A    between atoms: _160  and  _161
REMARK   71  A    between atoms: _163  and  _165
REMARK   72  A    between atoms: _165  and  _166
REMARK   73  A    between atoms: _165  and  _168
REMARK   74  A    between atoms: _171  and  _173
REMARK   75  A    between atoms: _173  and  _174
REMARK   76  A    between atoms: _173  and  _176
REMARK   77  A    between atoms: _179  and  _181
REMARK   78  A    between atoms: _181  and  _182
REMARK   79  A    between atoms: _181  and  _184
REMARK   80  A    between atoms: _184  and  _185
REMARK   81  A    between atoms: _188  and  _190
REMARK   82  A    between atoms: _190  and  _191
REMARK   83  A    between atoms: _190  and  _193
REMARK   84  A    between atoms: _193  and  _194
REMARK   85  A    between atoms: _198  and  _199
REMARK   86  A    between atoms: _204  and  _206
REMARK   87  A    between atoms: _206  and  _207
REMARK   88  A    between atoms: _210  and  _212
REMARK   89  A    between atoms: _212  and  _213
REMARK   90  A    between atoms: _212  and  _215
REMARK   91  A    between atoms: _215  and  _216
REMARK   92  A    between atoms: _221  and  _223
REMARK   93  A    between atoms: _223  and  _224
REMARK   94  A    between atoms: _223  and  _226
REMARK   95  A    between atoms: _226  and  _227
REMARK   96  A    between atoms: _230  and  _232
REMARK   97  A    between atoms: _232  and  _233
REMARK   98  A    between atoms: _232  and  _235
REMARK   99  A    between atoms: _235  and  _236
REMARK  100  A    between atoms: _239  and  _241
REMARK  101  A    between atoms: _241  and  _242
REMARK  102  A    between atoms: _244  and  _246
REMARK  103  A    between atoms: _246  and  _247
REMARK  104  A    between atoms: _246  and  _249
REMARK  105  A    between atoms: _249  and  _250
REMARK  106  A    between atoms: _250  and  _251
REMARK  107  A    between atoms: _251  and  _252
REMARK  108  A    between atoms: _261  and  _263
REMARK  109  A    between atoms: _263  and  _264
REMARK  110  A    between atoms: _263  and  _266
REMARK  111  A    between atoms: _266  and  _267
REMARK  112  A    between atoms: _267  and  _268
REMARK  113  A    between atoms: _268  and  _269
REMARK  114  A    between atoms: _278  and  _280
REMARK  115  A    between atoms: _280  and  _281
REMARK  116  A    between atoms: _280  and  _283
REMARK  117  A    between atoms: _283  and  _284
REMARK  118  A    between atoms: _287  and  _289
REMARK  119  A    between atoms: _289  and  _290
REMARK  120  A    between atoms: _289  and  _292
REMARK  121  A    between atoms: _292  and  _293
REMARK  122  A    between atoms: _296  and  _298
REMARK  123  A    between atoms: _298  and  _299
REMARK  124  A    between atoms: _298  and  _301
REMARK  125  A    between atoms: _301  and  _302
REMARK  126  A    between atoms: _305  and  _307
REMARK  127  A    between atoms: _307  and  _308
REMARK  128  A    between atoms: _307  and  _310
REMARK  129  A    between atoms: _310  and  _311
REMARK  130  A    between atoms: _314  and  _316
REMARK  131  A    between atoms: _316  and  _317
REMARK  132  A    between atoms: _316  and  _319
REMARK  133  A    between atoms: _319  and  _320
REMARK  134  A    between atoms: _323  and  _325
REMARK  135  A    between atoms: _325  and  _326
REMARK  136  A    between atoms: _328  and  _330
REMARK  137  A    between atoms: _330  and  _331
REMARK  138  A    between atoms: _334  and  _336
REMARK  139  A    between atoms: _336  and  _337
REMARK  140  A    between atoms: _336  and  _339
REMARK  141  A    between atoms: _339  and  _340
REMARK  142  A    between atoms: _343  and  _345
REMARK  143  A    between atoms: _345  and  _346
REMARK  144  A    between atoms: _345  and  _348
REMARK  145  A    between atoms: _348  and  _349
REMARK  146  A    between atoms: _352  and  _354
REMARK  147  A    between atoms: _354  and  _355
REMARK  148  A    between atoms: _354  and  _357
REMARK  149  A    between atoms: _357  and  _358
REMARK  150  A    between atoms: _361  and  _363
REMARK  151  A    between atoms: _363  and  _364
REMARK  152  A    between atoms: _363  and  _366
REMARK  153  A    between atoms: _369  and  _371
REMARK  154  A    between atoms: _371  and  _372
REMARK  155  A    between atoms: _371  and  _374
REMARK  156  A    between atoms: _374  and  _375
REMARK  157  A    between atoms: _375  and  _376
REMARK  158  A    between atoms: _379  and  _381
REMARK  159  A    between atoms: _381  and  _382
REMARK  160  A    between atoms: _381  and  _384
REMARK  161  A    between atoms: _384  and  _385
REMARK  162  A    between atoms: _385  and  _386
REMARK  163  A    between atoms: _386  and  _387
REMARK  164  A    between atoms: _387  and  _388
REMARK  165  A    between atoms: _392  and  _394
REMARK  166  A    between atoms: _394  and  _395
REMARK  167  A    between atoms: _394  and  _397
REMARK  168  A    between atoms: _397  and  _398
REMARK  169  A    between atoms: _398  and  _399
REMARK  170  A    between atoms: _401  and  _403
REMARK  171  A    between atoms: _403  and  _404
REMARK  172  A    between atoms: _403  and  _406
REMARK  173  A    between atoms: _406  and  _407
REMARK  174  A    between atoms: _410  and  _412
REMARK  175  A    between atoms: _412  and  _413
REMARK  176  A    between atoms: _412  and  _415
REMARK  177  A    between atoms: _418  and  _420
REMARK  178  A    between atoms: _420  and  _421
REMARK  179  A    between atoms: _423  and  _425
REMARK  180  A    between atoms: _425  and  _426
REMARK  181  A    between atoms: _425  and  _428
REMARK  182  A    between atoms: _428  and  _429
REMARK  183  A    between atoms: _432  and  _434
REMARK  184  A    between atoms: _434  and  _435
REMARK  185  A    between atoms: _437  and  _439
REMARK  186  A    between atoms: _439  and  _440
REMARK  187  A    between atoms: _442  and  _444
REMARK  188  A    between atoms: _444  and  _445
REMARK  189  A    between atoms: _444  and  _447
REMARK  190  A    between atoms: _447  and  _448
REMARK  191  A    between atoms: _454  and  _456
REMARK  192  A    between atoms: _456  and  _457
REMARK  193  A    between atoms: _456  and  _459
REMARK  194  A    between atoms: _462  and  _464
REMARK  195  A    between atoms: _464  and  _465
REMARK  196  A    between atoms: _464  and  _467
REMARK  197  A    between atoms: _470  and  _472
REMARK  198  A    between atoms: _472  and  _473
REMARK  199  A    between atoms: _472  and  _475
REMARK  200  A    between atoms: _475  and  _476
REMARK  201  A    between atoms: _480  and  _481
REMARK  202  A    between atoms: _486  and  _488
REMARK  203  A    between atoms: _488  and  _489
REMARK  204  A    between atoms: _488  and  _491
REMARK  205  A    between atoms: _491  and  _492
REMARK  206  A    between atoms: _496  and  _497
REMARK  207  A    between atoms: _502  and  _504
REMARK  208  A    between atoms: _504  and  _505
REMARK  209  A    between atoms: _508  and  _510
REMARK  210  A    between atoms: _510  and  _511
REMARK  211  A    between atoms: _510  and  _513
REMARK  212  A    between atoms: _513  and  _514
REMARK  213  A    between atoms: _519  and  _521
REMARK  214  A    between atoms: _521  and  _522
REMARK  215  A    between atoms: _521  and  _524
REMARK  216  A    between atoms: _524  and  _525
REMARK  217  A    between atoms: _528  and  _530
REMARK  218  A    between atoms: _530  and  _531
REMARK  219  A    between atoms: _530  and  _533
REMARK  220  A    between atoms: _533  and  _534
REMARK  221  A    between atoms: _537  and  _539
REMARK  222  A    between atoms: _539  and  _540
REMARK  223  A    between atoms: _542  and  _544
REMARK  224  A    between atoms: _544  and  _545
REMARK  225  A    between atoms: _544  and  _547
REMARK  226  A    between atoms: _547  and  _548
REMARK  227  A    between atoms: _548  and  _549
REMARK  228  A    between atoms: _549  and  _550
REMARK                            x       y       z     vdW  Elec       q    Type
REMARK                         _______ _______ _______ _____ _____    ______ ____
ROOT
ATOM      1  O   HOH     1      15.822  11.292  20.931  0.00  0.00    +0.000 OA
ENDROOT
TORSDOF 0
REMARK  Name = ../refined-set-2016/3ekw/3ekw_pocket.pdb
REMARK  228 active torsions:
REMARK  status: ('A' for Active; 'I' for Inactive)
REMARK    1  A    between atoms: _1  and  _3
REMARK    2  A    between atoms: _3  and  _4
REMARK    3  A    between atoms: _3  and  _6
REMARK    4  A    between atoms: _6  and  _7
REMARK    5  A    between atoms: _7  and  _8
REMARK    6  A    between atoms: _8  and  _9
REMARK    7  A    between atoms: _18  and  _20
REMARK    8  A    between atoms: _20  and  _21
REMARK    9  A    between atoms: _20  and  _23
REMARK   10  A    between atoms: _23  and  _24
REMARK   11  A    between atoms: _27  and  _29
REMARK   12  A    between atoms: _29  and  _30
REMARK   13  A    between atoms: _29  and  _32
REMARK   14  A    between atoms: _32  and  _33
REMARK   15  A    between atoms: _36  and  _38
REMARK   16  A    between atoms: _38  and  _39
REMARK   17  A    between atoms: _38  and  _41
REMARK   18  A    between atoms: _41  and  _42
REMARK   19  A    between atoms: _45  and  _47
REMARK   20  A    between atoms: _47  and  _48
REMARK   21  A    between atoms: _47  and  _50
REMARK   22  A    between atoms: _50  and  _51
REMARK   23  A    between atoms: _54  and  _56
REMARK   24  A    between atoms: _56  and  _57
REMARK   25  A    between atoms: _59  and  _61
REMARK   26  A    between atoms: _61  and  _62
REMARK   27  A    between atoms: _65  and  _67
REMARK   28  A    between atoms: _67  and  _68
REMARK   29  A    between atoms: _67  and  _70
REMARK   30  A    between atoms: _70  and  _71
REMARK   31  A    between atoms: _74  and  _76
REMARK   32  A    between atoms: _76  and  _77
REMARK   33  A    between atoms: _76  and  _79
REMARK   34  A    between atoms: _79  and  _80
REMARK   35  A    between atoms: _83  and  _85
REMARK   36  A    between atoms: _85  and  _86
REMARK   37  A    between atoms: _85  and  _88
REMARK   38  A    between atoms: _88  and  _89
REMARK   39  A    between atoms: _92  and  _94
REMARK   40  A    between atoms: _94  and  _95
REMARK   41  A    between atoms: _94  and  _97
REMARK   42  A    between atoms: _100  and  _102
REMARK   43  A    between atoms: _102  and  _103
REMARK   44  A    between atoms: _102  and  _105
REMARK   45  A    between atoms: _105  and  _106
REMARK   46  A    between atoms: _106  and  _107
REMARK   47  A    between atoms: _107  and  _108
REMARK   48  A    between atoms: _108  and  _109
REMARK   49  A    between atoms: _113  and  _115
REMARK   50  A    between atoms: _115  and  _116
REMARK   51  A    between atoms: _115  and  _118
REMARK   52  A    between atoms: _118  and  _119
REMARK   53  A    between atoms: _119  and  _120
REMARK   54  A    between atoms: _122  and  _124
REMARK   55  A    between atoms: _124  and  _125
REMARK   56  A    between atoms: _124  and  _127
REMARK   57  A    between atoms: _127  and  _128
REMARK   58  A    between atoms: _131  and  _133
REMARK   59  A    between atoms: _133  and  _134
REMARK   60  A    between atoms: _133  and  _136
REMARK   61  A    between atoms: _139  and  _141
REMARK   62  A    between atoms: _141  and  _142
REMARK   63  A    between atoms: _144  and  _146
REMARK   64  A    between atoms: _146  and  _147
REMARK   65  A    between atoms: _146  and  _149
REMARK   66  A    between atoms: _149  and  _150
REMARK   67  A    between atoms: _153  and  _155
REMARK   68  A    between atoms: _155  and  _156
REMARK   69  A    between atoms: _158  and  _160
REMARK   70  A    between atoms: _160  and  _161
REMARK   71  A    between atoms: _163  and  _165
REMARK   72  A    between atoms: _165  and  _166
REMARK   73  A    between atoms: _165  and  _168
REMARK   74  A    between atoms: _171  and  _173
REMARK   75  A    between atoms: _173  and  _174
REMARK   76  A    between atoms: _173  and  _176
REMARK   77  A    between atoms: _179  and  _181
REMARK   78  A    between atoms: _181  and  _182
REMARK   79  A    between atoms: _181  and  _184
REMARK   80  A    between atoms: _184  and  _185
REMARK   81  A    between atoms: _188  and  _190
REMARK   82  A    between atoms: _190  and  _191
REMARK   83  A    between atoms: _190  and  _193
REMARK   84  A    between atoms: _193  and  _194
REMARK   85  A    between atoms: _198  and  _199
REMARK   86  A    between atoms: _204  and  _206
REMARK   87  A    between atoms: _206  and  _207
REMARK   88  A    between atoms: _210  and  _212
REMARK   89  A    between atoms: _212  and  _213
REMARK   90  A    between atoms: _212  and  _215
REMARK   91  A    between atoms: _215  and  _216
REMARK   92  A    between atoms: _221  and  _223
REMARK   93  A    between atoms: _223  and  _224
REMARK   94  A    between atoms: _223  and  _226
REMARK   95  A    between atoms: _226  and  _227
REMARK   96  A    between atoms: _230  and  _232
REMARK   97  A    between atoms: _232  and  _233
REMARK   98  A    between atoms: _232  and  _235
REMARK   99  A    between atoms: _235  and  _236
REMARK  100  A    between atoms: _239  and  _241
REMARK  101  A    between atoms: _241  and  _242
REMARK  102  A    between atoms: _244  and  _246
REMARK  103  A    between atoms: _246  and  _247
REMARK  104  A    between atoms: _246  and  _249
REMARK  105  A    between atoms: _249  and  _250
REMARK  106  A    between atoms: _250  and  _251
REMARK  107  A    between atoms: _251  and  _252
REMARK  108  A    between atoms: _261  and  _263
REMARK  109  A    between atoms: _263  and  _264
REMARK  110  A    between atoms: _263  and  _266
REMARK  111  A    between atoms: _266  and  _267
REMARK  112  A    between atoms: _267  and  _268
REMARK  113  A    between atoms: _268  and  _269
REMARK  114  A    between atoms: _278  and  _280
REMARK  115  A    between atoms: _280  and  _281
REMARK  116  A    between atoms: _280  and  _283
REMARK  117  A    between atoms: _283  and  _284
REMARK  118  A    between atoms: _287  and  _289
REMARK  119  A    between atoms: _289  and  _290
REMARK  120  A    between atoms: _289  and  _292
REMARK  121  A    between atoms: _292  and  _293
REMARK  122  A    between atoms: _296  and  _298
REMARK  123  A    between atoms: _298  and  _299
REMARK  124  A    between atoms: _298  and  _301
REMARK  125  A    between atoms: _301  and  _302
REMARK  126  A    between atoms: _305  and  _307
REMARK  127  A    between atoms: _307  and  _308
REMARK  128  A    between atoms: _307  and  _310
REMARK  129  A    between atoms: _310  and  _311
REMARK  130  A    between atoms: _314  and  _316
REMARK  131  A    between atoms: _316  and  _317
REMARK  132  A    between atoms: _316  and  _319
REMARK  133  A    between atoms: _319  and  _320
REMARK  134  A    between atoms: _323  and  _325
REMARK  135  A    between atoms: _325  and  _326
REMARK  136  A    between atoms: _328  and  _330
REMARK  137  A    between atoms: _330  and  _331
REMARK  138  A    between atoms: _334  and  _336
REMARK  139  A    between atoms: _336  and  _337
REMARK  140  A    between atoms: _336  and  _339
REMARK  141  A    between atoms: _339  and  _340
REMARK  142  A    between atoms: _343  and  _345
REMARK  143  A    between atoms: _345  and  _346
REMARK  144  A    between atoms: _345  and  _348
REMARK  145  A    between atoms: _348  and  _349
REMARK  146  A    between atoms: _352  and  _354
REMARK  147  A    between atoms: _354  and  _355
REMARK  148  A    between atoms: _354  and  _357
REMARK  149  A    between atoms: _357  and  _358
REMARK  150  A    between atoms: _361  and  _363
REMARK  151  A    between atoms: _363  and  _364
REMARK  152  A    between atoms: _363  and  _366
REMARK  153  A    between atoms: _369  and  _371
REMARK  154  A    between atoms: _371  and  _372
REMARK  155  A    between atoms: _371  and  _374
REMARK  156  A    between atoms: _374  and  _375
REMARK  157  A    between atoms: _375  and  _376
REMARK  158  A    between atoms: _379  and  _381
REMARK  159  A    between atoms: _381  and  _382
REMARK  160  A    between atoms: _381  and  _384
REMARK  161  A    between atoms: _384  and  _385
REMARK  162  A    between atoms: _385  and  _386
REMARK  163  A    between atoms: _386  and  _387
REMARK  164  A    between atoms: _387  and  _388
REMARK  165  A    between atoms: _392  and  _394
REMARK  166  A    between atoms: _394  and  _395
REMARK  167  A    between atoms: _394  and  _397
REMARK  168  A    between atoms: _397  and  _398
REMARK  169  A    between atoms: _398  and  _399
REMARK  170  A    between atoms: _401  and  _403
REMARK  171  A    between atoms: _403  and  _404
REMARK  172  A    between atoms: _403  and  _406
REMARK  173  A    between atoms: _406  and  _407
REMARK  174  A    between atoms: _410  and  _412
REMARK  175  A    between atoms: _412  and  _413
REMARK  176  A    between atoms: _412  and  _415
REMARK  177  A    between atoms: _418  and  _420
REMARK  178  A    between atoms: _420  and  _421
REMARK  179  A    between atoms: _423  and  _425
REMARK  180  A    between atoms: _425  and  _426
REMARK  181  A    between atoms: _425  and  _428
REMARK  182  A    between atoms: _428  and  _429
REMARK  183  A    between atoms: _432  and  _434
REMARK  184  A    between atoms: _434  and  _435
REMARK  185  A    between atoms: _437  and  _439
REMARK  186  A    between atoms: _439  and  _440
REMARK  187  A    between atoms: _442  and  _444
REMARK  188  A    between atoms: _444  and  _445
REMARK  189  A    between atoms: _444  and  _447
REMARK  190  A    between atoms: _447  and  _448
REMARK  191  A    between atoms: _454  and  _456
REMARK  192  A    between atoms: _456  and  _457
REMARK  193  A    between atoms: _456  and  _459
REMARK  194  A    between atoms: _462  and  _464
REMARK  195  A    between atoms: _464  and  _465
REMARK  196  A    between atoms: _464  and  _467
REMARK  197  A    between atoms: _470  and  _472
REMARK  198  A    between atoms: _472  and  _473
REMARK  199  A    between atoms: _472  and  _475
REMARK  200  A    between atoms: _475  and  _476
REMARK  201  A    between atoms: _480  and  _481
REMARK  202  A    between atoms: _486  and  _488
REMARK  203  A    between atoms: _488  and  _489
REMARK  204  A    between atoms: _488  and  _491
REMARK  205  A    between atoms: _491  and  _492
REMARK  206  A    between atoms: _496  and  _497
REMARK  207  A    between atoms: _502  and  _504
REMARK  208  A    between atoms: _504  and  _505
REMARK  209  A    between atoms: _508  and  _510
REMARK  210  A    between atoms: _510  and  _511
REMARK  211  A    between atoms: _510  and  _513
REMARK  212  A    between atoms: _513  and  _514
REMARK  213  A    between atoms: _519  and  _521
REMARK  214  A    between atoms: _521  and  _522
REMARK  215  A    between atoms: _521  and  _524
REMARK  216  A    between atoms: _524  and  _525
REMARK  217  A    between atoms: _528  and  _530
REMARK  218  A    between atoms: _530  and  _531
REMARK  219  A    between atoms: _530  and  _533
REMARK  220  A    between atoms: _533  and  _534
REMARK  221  A    between atoms: _537  and  _539
REMARK  222  A    between atoms: _539  and  _540
REMARK  223  A    between atoms: _542  and  _544
REMARK  224  A    between atoms: _544  and  _545
REMARK  225  A    between atoms: _544  and  _547
REMARK  226  A    between atoms: _547  and  _548
REMARK  227  A    between atoms: _548  and  _549
REMARK  228  A    between atoms: _549  and  _550
REMARK                            x       y       z     vdW  Elec       q    Type
REMARK                         _______ _______ _______ _____ _____    ______ ____
ROOT
ATOM      1  O   HOH     1      10.017   7.291  19.500  0.00  0.00    +0.000 OA
ENDROOT
TORSDOF 0
REMARK  Name = ../refined-set-2016/3ekw/3ekw_pocket.pdb
REMARK  228 active torsions:
REMARK  status: ('A' for Active; 'I' for Inactive)
REMARK    1  A    between atoms: _1  and  _3
REMARK    2  A    between atoms: _3  and  _4
REMARK    3  A    between atoms: _3  and  _6
REMARK    4  A    between atoms: _6  and  _7
REMARK    5  A    between atoms: _7  and  _8
REMARK    6  A    between atoms: _8  and  _9
REMARK    7  A    between atoms: _18  and  _20
REMARK    8  A    between atoms: _20  and  _21
REMARK    9  A    between atoms: _20  and  _23
REMARK   10  A    between atoms: _23  and  _24
REMARK   11  A    between atoms: _27  and  _29
REMARK   12  A    between atoms: _29  and  _30
REMARK   13  A    between atoms: _29  and  _32
REMARK   14  A    between atoms: _32  and  _33
REMARK   15  A    between atoms: _36  and  _38
REMARK   16  A    between atoms: _38  and  _39
REMARK   17  A    between atoms: _38  and  _41
REMARK   18  A    between atoms: _41  and  _42
REMARK   19  A    between atoms: _45  and  _47
REMARK   20  A    between atoms: _47  and  _48
REMARK   21  A    between atoms: _47  and  _50
REMARK   22  A    between atoms: _50  and  _51
REMARK   23  A    between atoms: _54  and  _56
REMARK   24  A    between atoms: _56  and  _57
REMARK   25  A    between atoms: _59  and  _61
REMARK   26  A    between atoms: _61  and  _62
REMARK   27  A    between atoms: _65  and  _67
REMARK   28  A    between atoms: _67  and  _68
REMARK   29  A    between atoms: _67  and  _70
REMARK   30  A    between atoms: _70  and  _71
REMARK   31  A    between atoms: _74  and  _76
REMARK   32  A    between atoms: _76  and  _77
REMARK   33  A    between atoms: _76  and  _79
REMARK   34  A    between atoms: _79  and  _80
REMARK   35  A    between atoms: _83  and  _85
REMARK   36  A    between atoms: _85  and  _86
REMARK   37  A    between atoms: _85  and  _88
REMARK   38  A    between atoms: _88  and  _89
REMARK   39  A    between atoms: _92  and  _94
REMARK   40  A    between atoms: _94  and  _95
REMARK   41  A    between atoms: _94  and  _97
REMARK   42  A    between atoms: _100  and  _102
REMARK   43  A    between atoms: _102  and  _103
REMARK   44  A    between atoms: _102  and  _105
REMARK   45  A    between atoms: _105  and  _106
REMARK   46  A    between atoms: _106  and  _107
REMARK   47  A    between atoms: _107  and  _108
REMARK   48  A    between atoms: _108  and  _109
REMARK   49  A    between atoms: _113  and  _115
REMARK   50  A    between atoms: _115  and  _116
REMARK   51  A    between atoms: _115  and  _118
REMARK   52  A    between atoms: _118  and  _119
REMARK   53  A    between atoms: _119  and  _120
REMARK   54  A    between atoms: _122  and  _124
REMARK   55  A    between atoms: _124  and  _125
REMARK   56  A    between atoms: _124  and  _127
REMARK   57  A    between atoms: _127  and  _128
REMARK   58  A    between atoms: _131  and  _133
REMARK   59  A    between atoms: _133  and  _134
REMARK   60  A    between atoms: _133  and  _136
REMARK   61  A    between atoms: _139  and  _141
REMARK   62  A    between atoms: _141  and  _142
REMARK   63  A    between atoms: _144  and  _146
REMARK   64  A    between atoms: _146  and  _147
REMARK   65  A    between atoms: _146  and  _149
REMARK   66  A    between atoms: _149  and  _150
REMARK   67  A    between atoms: _153  and  _155
REMARK   68  A    between atoms: _155  and  _156
REMARK   69  A    between atoms: _158  and  _160
REMARK   70  A    between atoms: _160  and  _161
REMARK   71  A    between atoms: _163  and  _165
REMARK   72  A    between atoms: _165  and  _166
REMARK   73  A    between atoms: _165  and  _168
REMARK   74  A    between atoms: _171  and  _173
REMARK   75  A    between atoms: _173  and  _174
REMARK   76  A    between atoms: _173  and  _176
REMARK   77  A    between atoms: _179  and  _181
REMARK   78  A    between atoms: _181  and  _182
REMARK   79  A    between atoms: _181  and  _184
REMARK   80  A    between atoms: _184  and  _185
REMARK   81  A    between atoms: _188  and  _190
REMARK   82  A    between atoms: _190  and  _191
REMARK   83  A    between atoms: _190  and  _193
REMARK   84  A    between atoms: _193  and  _194
REMARK   85  A    between atoms: _198  and  _199
REMARK   86  A    between atoms: _204  and  _206
REMARK   87  A    between atoms: _206  and  _207
REMARK   88  A    between atoms: _210  and  _212
REMARK   89  A    between atoms: _212  and  _213
REMARK   90  A    between atoms: _212  and  _215
REMARK   91  A    between atoms: _215  and  _216
REMARK   92  A    between atoms: _221  and  _223
REMARK   93  A    between atoms: _223  and  _224
REMARK   94  A    between atoms: _223  and  _226
REMARK   95  A    between atoms: _226  and  _227
REMARK   96  A    between atoms: _230  and  _232
REMARK   97  A    between atoms: _232  and  _233
REMARK   98  A    between atoms: _232  and  _235
REMARK   99  A    between atoms: _235  and  _236
REMARK  100  A    between atoms: _239  and  _241
REMARK  101  A    between atoms: _241  and  _242
REMARK  102  A    between atoms: _244  and  _246
REMARK  103  A    between atoms: _246  and  _247
REMARK  104  A    between atoms: _246  and  _249
REMARK  105  A    between atoms: _249  and  _250
REMARK  106  A    between atoms: _250  and  _251
REMARK  107  A    between atoms: _251  and  _252
REMARK  108  A    between atoms: _261  and  _263
REMARK  109  A    between atoms: _263  and  _264
REMARK  110  A    between atoms: _263  and  _266
REMARK  111  A    between atoms: _266  and  _267
REMARK  112  A    between atoms: _267  and  _268
REMARK  113  A    between atoms: _268  and  _269
REMARK  114  A    between atoms: _278  and  _280
REMARK  115  A    between atoms: _280  and  _281
REMARK  116  A    between atoms: _280  and  _283
REMARK  117  A    between atoms: _283  and  _284
REMARK  118  A    between atoms: _287  and  _289
REMARK  119  A    between atoms: _289  and  _290
REMARK  120  A    between atoms: _289  and  _292
REMARK  121  A    between atoms: _292  and  _293
REMARK  122  A    between atoms: _296  and  _298
REMARK  123  A    between atoms: _298  and  _299
REMARK  124  A    between atoms: _298  and  _301
REMARK  125  A    between atoms: _301  and  _302
REMARK  126  A    between atoms: _305  and  _307
REMARK  127  A    between atoms: _307  and  _308
REMARK  128  A    between atoms: _307  and  _310
REMARK  129  A    between atoms: _310  and  _311
REMARK  130  A    between atoms: _314  and  _316
REMARK  131  A    between atoms: _316  and  _317
REMARK  132  A    between atoms: _316  and  _319
REMARK  133  A    between atoms: _319  and  _320
REMARK  134  A    between atoms: _323  and  _325
REMARK  135  A    between atoms: _325  and  _326
REMARK  136  A    between atoms: _328  and  _330
REMARK  137  A    between atoms: _330  and  _331
REMARK  138  A    between atoms: _334  and  _336
REMARK  139  A    between atoms: _336  and  _337
REMARK  140  A    between atoms: _336  and  _339
REMARK  141  A    between atoms: _339  and  _340
REMARK  142  A    between atoms: _343  and  _345
REMARK  143  A    between atoms: _345  and  _346
REMARK  144  A    between atoms: _345  and  _348
REMARK  145  A    between atoms: _348  and  _349
REMARK  146  A    between atoms: _352  and  _354
REMARK  147  A    between atoms: _354  and  _355
REMARK  148  A    between atoms: _354  and  _357
REMARK  149  A    between atoms: _357  and  _358
REMARK  150  A    between atoms: _361  and  _363
REMARK  151  A    between atoms: _363  and  _364
REMARK  152  A    between atoms: _363  and  _366
REMARK  153  A    between atoms: _369  and  _371
REMARK  154  A    between atoms: _371  and  _372
REMARK  155  A    between atoms: _371  and  _374
REMARK  156  A    between atoms: _374  and  _375
REMARK  157  A    between atoms: _375  and  _376
REMARK  158  A    between atoms: _379  and  _381
REMARK  159  A    between atoms: _381  and  _382
REMARK  160  A    between atoms: _381  and  _384
REMARK  161  A    between atoms: _384  and  _385
REMARK  162  A    between atoms: _385  and  _386
REMARK  163  A    between atoms: _386  and  _387
REMARK  164  A    between atoms: _387  and  _388
REMARK  165  A    between atoms: _392  and  _394
REMARK  166  A    between atoms: _394  and  _395
REMARK  167  A    between atoms: _394  and  _397
REMARK  168  A    between atoms: _397  and  _398
REMARK  169  A    between atoms: _398  and  _399
REMARK  170  A    between atoms: _401  and  _403
REMARK  171  A    between atoms: _403  and  _404
REMARK  172  A    between atoms: _403  and  _406
REMARK  173  A    between atoms: _406  and  _407
REMARK  174  A    between atoms: _410  and  _412
REMARK  175  A    between atoms: _412  and  _413
REMARK  176  A    between atoms: _412  and  _415
REMARK  177  A    between atoms: _418  and  _420
REMARK  178  A    between atoms: _420  and  _421
REMARK  179  A    between atoms: _423  and  _425
REMARK  180  A    between atoms: _425  and  _426
REMARK  181  A    between atoms: _425  and  _428
REMARK  182  A    between atoms: _428  and  _429
REMARK  183  A    between atoms: _432  and  _434
REMARK  184  A    between atoms: _434  and  _435
REMARK  185  A    between atoms: _437  and  _439
REMARK  186  A    between atoms: _439  and  _440
REMARK  187  A    between atoms: _442  and  _444
REMARK  188  A    between atoms: _444  and  _445
REMARK  189  A    between atoms: _444  and  _447
REMARK  190  A    between atoms: _447  and  _448
REMARK  191  A    between atoms: _454  and  _456
REMARK  192  A    between atoms: _456  and  _457
REMARK  193  A    between atoms: _456  and  _459
REMARK  194  A    between atoms: _462  and  _464
REMARK  195  A    between atoms: _464  and  _465
REMARK  196  A    between atoms: _464  and  _467
REMARK  197  A    between atoms: _470  and  _472
REMARK  198  A    between atoms: _472  and  _473
REMARK  199  A    between atoms: _472  and  _475
REMARK  200  A    between atoms: _475  and  _476
REMARK  201  A    between atoms: _480  and  _481
REMARK  202  A    between atoms: _486  and  _488
REMARK  203  A    between atoms: _488  and  _489
REMARK  204  A    between atoms: _488  and  _491
REMARK  205  A    between atoms: _491  and  _492
REMARK  206  A    between atoms: _496  and  _497
REMARK  207  A    between atoms: _502  and  _504
REMARK  208  A    between atoms: _504  and  _505
REMARK  209  A    between atoms: _508  and  _510
REMARK  210  A    between atoms: _510  and  _511
REMARK  211  A    between atoms: _510  and  _513
REMARK  212  A    between atoms: _513  and  _514
REMARK  213  A    between atoms: _519  and  _521
REMARK  214  A    between atoms: _521  and  _522
REMARK  215  A    between atoms: _521  and  _524
REMARK  216  A    between atoms: _524  and  _525
REMARK  217  A    between atoms: _528  and  _530
REMARK  218  A    between atoms: _530  and  _531
REMARK  219  A    between atoms: _530  and  _533
REMARK  220  A    between atoms: _533  and  _534
REMARK  221  A    between atoms: _537  and  _539
REMARK  222  A    between atoms: _539  and  _540
REMARK  223  A    between atoms: _542  and  _544
REMARK  224  A    between atoms: _544  and  _545
REMARK  225  A    between atoms: _544  and  _547
REMARK  226  A    between atoms: _547  and  _548
REMARK  227  A    between atoms: _548  and  _549
REMARK  228  A    between atoms: _549  and  _550
REMARK                            x       y       z     vdW  Elec       q    Type
REMARK                         _______ _______ _______ _____ _____    ______ ____
ROOT
ATOM      1  O   HOH     1      13.819 -11.983  10.801  0.00  0.00    +0.000 OA
ENDROOT
TORSDOF 0
REMARK  Name = ../refined-set-2016/3ekw/3ekw_pocket.pdb
REMARK  228 active torsions:
REMARK  status: ('A' for Active; 'I' for Inactive)
REMARK    1  A    between atoms: _1  and  _3
REMARK    2  A    between atoms: _3  and  _4
REMARK    3  A    between atoms: _3  and  _6
REMARK    4  A    between atoms: _6  and  _7
REMARK    5  A    between atoms: _7  and  _8
REMARK    6  A    between atoms: _8  and  _9
REMARK    7  A    between atoms: _18  and  _20
REMARK    8  A    between atoms: _20  and  _21
REMARK    9  A    between atoms: _20  and  _23
REMARK   10  A    between atoms: _23  and  _24
REMARK   11  A    between atoms: _27  and  _29
REMARK   12  A    between atoms: _29  and  _30
REMARK   13  A    between atoms: _29  and  _32
REMARK   14  A    between atoms: _32  and  _33
REMARK   15  A    between atoms: _36  and  _38
REMARK   16  A    between atoms: _38  and  _39
REMARK   17  A    between atoms: _38  and  _41
REMARK   18  A    between atoms: _41  and  _42
REMARK   19  A    between atoms: _45  and  _47
REMARK   20  A    between atoms: _47  and  _48
REMARK   21  A    between atoms: _47  and  _50
REMARK   22  A    between atoms: _50  and  _51
REMARK   23  A    between atoms: _54  and  _56
REMARK   24  A    between atoms: _56  and  _57
REMARK   25  A    between atoms: _59  and  _61
REMARK   26  A    between atoms: _61  and  _62
REMARK   27  A    between atoms: _65  and  _67
REMARK   28  A    between atoms: _67  and  _68
REMARK   29  A    between atoms: _67  and  _70
REMARK   30  A    between atoms: _70  and  _71
REMARK   31  A    between atoms: _74  and  _76
REMARK   32  A    between atoms: _76  and  _77
REMARK   33  A    between atoms: _76  and  _79
REMARK   34  A    between atoms: _79  and  _80
REMARK   35  A    between atoms: _83  and  _85
REMARK   36  A    between atoms: _85  and  _86
REMARK   37  A    between atoms: _85  and  _88
REMARK   38  A    between atoms: _88  and  _89
REMARK   39  A    between atoms: _92  and  _94
REMARK   40  A    between atoms: _94  and  _95
REMARK   41  A    between atoms: _94  and  _97
REMARK   42  A    between atoms: _100  and  _102
REMARK   43  A    between atoms: _102  and  _103
REMARK   44  A    between atoms: _102  and  _105
REMARK   45  A    between atoms: _105  and  _106
REMARK   46  A    between atoms: _106  and  _107
REMARK   47  A    between atoms: _107  and  _108
REMARK   48  A    between atoms: _108  and  _109
REMARK   49  A    between atoms: _113  and  _115
REMARK   50  A    between atoms: _115  and  _116
REMARK   51  A    between atoms: _115  and  _118
REMARK   52  A    between atoms: _118  and  _119
REMARK   53  A    between atoms: _119  and  _120
REMARK   54  A    between atoms: _122  and  _124
REMARK   55  A    between atoms: _124  and  _125
REMARK   56  A    between atoms: _124  and  _127
REMARK   57  A    between atoms: _127  and  _128
REMARK   58  A    between atoms: _131  and  _133
REMARK   59  A    between atoms: _133  and  _134
REMARK   60  A    between atoms: _133  and  _136
REMARK   61  A    between atoms: _139  and  _141
REMARK   62  A    between atoms: _141  and  _142
REMARK   63  A    between atoms: _144  and  _146
REMARK   64  A    between atoms: _146  and  _147
REMARK   65  A    between atoms: _146  and  _149
REMARK   66  A    between atoms: _149  and  _150
REMARK   67  A    between atoms: _153  and  _155
REMARK   68  A    between atoms: _155  and  _156
REMARK   69  A    between atoms: _158  and  _160
REMARK   70  A    between atoms: _160  and  _161
REMARK   71  A    between atoms: _163  and  _165
REMARK   72  A    between atoms: _165  and  _166
REMARK   73  A    between atoms: _165  and  _168
REMARK   74  A    between atoms: _171  and  _173
REMARK   75  A    between atoms: _173  and  _174
REMARK   76  A    between atoms: _173  and  _176
REMARK   77  A    between atoms: _179  and  _181
REMARK   78  A    between atoms: _181  and  _182
REMARK   79  A    between atoms: _181  and  _184
REMARK   80  A    between atoms: _184  and  _185
REMARK   81  A    between atoms: _188  and  _190
REMARK   82  A    between atoms: _190  and  _191
REMARK   83  A    between atoms: _190  and  _193
REMARK   84  A    between atoms: _193  and  _194
REMARK   85  A    between atoms: _198  and  _199
REMARK   86  A    between atoms: _204  and  _206
REMARK   87  A    between atoms: _206  and  _207
REMARK   88  A    between atoms: _210  and  _212
REMARK   89  A    between atoms: _212  and  _213
REMARK   90  A    between atoms: _212  and  _215
REMARK   91  A    between atoms: _215  and  _216
REMARK   92  A    between atoms: _221  and  _223
REMARK   93  A    between atoms: _223  and  _224
REMARK   94  A    between atoms: _223  and  _226
REMARK   95  A    between atoms: _226  and  _227
REMARK   96  A    between atoms: _230  and  _232
REMARK   97  A    between atoms: _232  and  _233
REMARK   98  A    between atoms: _232  and  _235
REMARK   99  A    between atoms: _235  and  _236
REMARK  100  A    between atoms: _239  and  _241
REMARK  101  A    between atoms: _241  and  _242
REMARK  102  A    between atoms: _244  and  _246
REMARK  103  A    between atoms: _246  and  _247
REMARK  104  A    between atoms: _246  and  _249
REMARK  105  A    between atoms: _249  and  _250
REMARK  106  A    between atoms: _250  and  _251
REMARK  107  A    between atoms: _251  and  _252
REMARK  108  A    between atoms: _261  and  _263
REMARK  109  A    between atoms: _263  and  _264
REMARK  110  A    between atoms: _263  and  _266
REMARK  111  A    between atoms: _266  and  _267
REMARK  112  A    between atoms: _267  and  _268
REMARK  113  A    between atoms: _268  and  _269
REMARK  114  A    between atoms: _278  and  _280
REMARK  115  A    between atoms: _280  and  _281
REMARK  116  A    between atoms: _280  and  _283
REMARK  117  A    between atoms: _283  and  _284
REMARK  118  A    between atoms: _287  and  _289
REMARK  119  A    between atoms: _289  and  _290
REMARK  120  A    between atoms: _289  and  _292
REMARK  121  A    between atoms: _292  and  _293
REMARK  122  A    between atoms: _296  and  _298
REMARK  123  A    between atoms: _298  and  _299
REMARK  124  A    between atoms: _298  and  _301
REMARK  125  A    between atoms: _301  and  _302
REMARK  126  A    between atoms: _305  and  _307
REMARK  127  A    between atoms: _307  and  _308
REMARK  128  A    between atoms: _307  and  _310
REMARK  129  A    between atoms: _310  and  _311
REMARK  130  A    between atoms: _314  and  _316
REMARK  131  A    between atoms: _316  and  _317
REMARK  132  A    between atoms: _316  and  _319
REMARK  133  A    between atoms: _319  and  _320
REMARK  134  A    between atoms: _323  and  _325
REMARK  135  A    between atoms: _325  and  _326
REMARK  136  A    between atoms: _328  and  _330
REMARK  137  A    between atoms: _330  and  _331
REMARK  138  A    between atoms: _334  and  _336
REMARK  139  A    between atoms: _336  and  _337
REMARK  140  A    between atoms: _336  and  _339
REMARK  141  A    between atoms: _339  and  _340
REMARK  142  A    between atoms: _343  and  _345
REMARK  143  A    between atoms: _345  and  _346
REMARK  144  A    between atoms: _345  and  _348
REMARK  145  A    between atoms: _348  and  _349
REMARK  146  A    between atoms: _352  and  _354
REMARK  147  A    between atoms: _354  and  _355
REMARK  148  A    between atoms: _354  and  _357
REMARK  149  A    between atoms: _357  and  _358
REMARK  150  A    between atoms: _361  and  _363
REMARK  151  A    between atoms: _363  and  _364
REMARK  152  A    between atoms: _363  and  _366
REMARK  153  A    between atoms: _369  and  _371
REMARK  154  A    between atoms: _371  and  _372
REMARK  155  A    between atoms: _371  and  _374
REMARK  156  A    between atoms: _374  and  _375
REMARK  157  A    between atoms: _375  and  _376
REMARK  158  A    between atoms: _379  and  _381
REMARK  159  A    between atoms: _381  and  _382
REMARK  160  A    between atoms: _381  and  _384
REMARK  161  A    between atoms: _384  and  _385
REMARK  162  A    between atoms: _385  and  _386
REMARK  163  A    between atoms: _386  and  _387
REMARK  164  A    between atoms: _387  and  _388
REMARK  165  A    between atoms: _392  and  _394
REMARK  166  A    between atoms: _394  and  _395
REMARK  167  A    between atoms: _394  and  _397
REMARK  168  A    between atoms: _397  and  _398
REMARK  169  A    between atoms: _398  and  _399
REMARK  170  A    between atoms: _401  and  _403
REMARK  171  A    between atoms: _403  and  _404
REMARK  172  A    between atoms: _403  and  _406
REMARK  173  A    between atoms: _406  and  _407
REMARK  174  A    between atoms: _410  and  _412
REMARK  175  A    between atoms: _412  and  _413
REMARK  176  A    between atoms: _412  and  _415
REMARK  177  A    between atoms: _418  and  _420
REMARK  178  A    between atoms: _420  and  _421
REMARK  179  A    between atoms: _423  and  _425
REMARK  180  A    between atoms: _425  and  _426
REMARK  181  A    between atoms: _425  and  _428
REMARK  182  A    between atoms: _428  and  _429
REMARK  183  A    between atoms: _432  and  _434
REMARK  184  A    between atoms: _434  and  _435
REMARK  185  A    between atoms: _437  and  _439
REMARK  186  A    between atoms: _439  and  _440
REMARK  187  A    between atoms: _442  and  _444
REMARK  188  A    between atoms: _444  and  _445
REMARK  189  A    between atoms: _444  and  _447
REMARK  190  A    between atoms: _447  and  _448
REMARK  191  A    between atoms: _454  and  _456
REMARK  192  A    between atoms: _456  and  _457
REMARK  193  A    between atoms: _456  and  _459
REMARK  194  A    between atoms: _462  and  _464
REMARK  195  A    between atoms: _464  and  _465
REMARK  196  A    between atoms: _464  and  _467
REMARK  197  A    between atoms: _470  and  _472
REMARK  198  A    between atoms: _472  and  _473
REMARK  199  A    between atoms: _472  and  _475
REMARK  200  A    between atoms: _475  and  _476
REMARK  201  A    between atoms: _480  and  _481
REMARK  202  A    between atoms: _486  and  _488
REMARK  203  A    between atoms: _488  and  _489
REMARK  204  A    between atoms: _488  and  _491
REMARK  205  A    between atoms: _491  and  _492
REMARK  206  A    between atoms: _496  and  _497
REMARK  207  A    between atoms: _502  and  _504
REMARK  208  A    between atoms: _504  and  _505
REMARK  209  A    between atoms: _508  and  _510
REMARK  210  A    between atoms: _510  and  _511
REMARK  211  A    between atoms: _510  and  _513
REMARK  212  A    between atoms: _513  and  _514
REMARK  213  A    between atoms: _519  and  _521
REMARK  214  A    between atoms: _521  and  _522
REMARK  215  A    between atoms: _521  and  _524
REMARK  216  A    between atoms: _524  and  _525
REMARK  217  A    between atoms: _528  and  _530
REMARK  218  A    between atoms: _530  and  _531
REMARK  219  A    between atoms: _530  and  _533
REMARK  220  A    between atoms: _533  and  _534
REMARK  221  A    between atoms: _537  and  _539
REMARK  222  A    between atoms: _539  and  _540
REMARK  223  A    between atoms: _542  and  _544
REMARK  224  A    between atoms: _544  and  _545
REMARK  225  A    between atoms: _544  and  _547
REMARK  226  A    between atoms: _547  and  _548
REMARK  227  A    between atoms: _548  and  _549
REMARK  228  A    between atoms: _549  and  _550
REMARK                            x       y       z     vdW  Elec       q    Type
REMARK                         _______ _______ _______ _____ _____    ______ ____
ROOT
ATOM      1  O   HOH     1      17.773 -11.205  13.780  0.00  0.00    +0.000 OA
ENDROOT
TORSDOF 0
REMARK  Name = ../refined-set-2016/3ekw/3ekw_pocket.pdb
REMARK  228 active torsions:
REMARK  status: ('A' for Active; 'I' for Inactive)
REMARK    1  A    between atoms: _1  and  _3
REMARK    2  A    between atoms: _3  and  _4
REMARK    3  A    between atoms: _3  and  _6
REMARK    4  A    between atoms: _6  and  _7
REMARK    5  A    between atoms: _7  and  _8
REMARK    6  A    between atoms: _8  and  _9
REMARK    7  A    between atoms: _18  and  _20
REMARK    8  A    between atoms: _20  and  _21
REMARK    9  A    between atoms: _20  and  _23
REMARK   10  A    between atoms: _23  and  _24
REMARK   11  A    between atoms: _27  and  _29
REMARK   12  A    between atoms: _29  and  _30
REMARK   13  A    between atoms: _29  and  _32
REMARK   14  A    between atoms: _32  and  _33
REMARK   15  A    between atoms: _36  and  _38
REMARK   16  A    between atoms: _38  and  _39
REMARK   17  A    between atoms: _38  and  _41
REMARK   18  A    between atoms: _41  and  _42
REMARK   19  A    between atoms: _45  and  _47
REMARK   20  A    between atoms: _47  and  _48
REMARK   21  A    between atoms: _47  and  _50
REMARK   22  A    between atoms: _50  and  _51
REMARK   23  A    between atoms: _54  and  _56
REMARK   24  A    between atoms: _56  and  _57
REMARK   25  A    between atoms: _59  and  _61
REMARK   26  A    between atoms: _61  and  _62
REMARK   27  A    between atoms: _65  and  _67
REMARK   28  A    between atoms: _67  and  _68
REMARK   29  A    between atoms: _67  and  _70
REMARK   30  A    between atoms: _70  and  _71
REMARK   31  A    between atoms: _74  and  _76
REMARK   32  A    between atoms: _76  and  _77
REMARK   33  A    between atoms: _76  and  _79
REMARK   34  A    between atoms: _79  and  _80
REMARK   35  A    between atoms: _83  and  _85
REMARK   36  A    between atoms: _85  and  _86
REMARK   37  A    between atoms: _85  and  _88
REMARK   38  A    between atoms: _88  and  _89
REMARK   39  A    between atoms: _92  and  _94
REMARK   40  A    between atoms: _94  and  _95
REMARK   41  A    between atoms: _94  and  _97
REMARK   42  A    between atoms: _100  and  _102
REMARK   43  A    between atoms: _102  and  _103
REMARK   44  A    between atoms: _102  and  _105
REMARK   45  A    between atoms: _105  and  _106
REMARK   46  A    between atoms: _106  and  _107
REMARK   47  A    between atoms: _107  and  _108
REMARK   48  A    between atoms: _108  and  _109
REMARK   49  A    between atoms: _113  and  _115
REMARK   50  A    between atoms: _115  and  _116
REMARK   51  A    between atoms: _115  and  _118
REMARK   52  A    between atoms: _118  and  _119
REMARK   53  A    between atoms: _119  and  _120
REMARK   54  A    between atoms: _122  and  _124
REMARK   55  A    between atoms: _124  and  _125
REMARK   56  A    between atoms: _124  and  _127
REMARK   57  A    between atoms: _127  and  _128
REMARK   58  A    between atoms: _131  and  _133
REMARK   59  A    between atoms: _133  and  _134
REMARK   60  A    between atoms: _133  and  _136
REMARK   61  A    between atoms: _139  and  _141
REMARK   62  A    between atoms: _141  and  _142
REMARK   63  A    between atoms: _144  and  _146
REMARK   64  A    between atoms: _146  and  _147
REMARK   65  A    between atoms: _146  and  _149
REMARK   66  A    between atoms: _149  and  _150
REMARK   67  A    between atoms: _153  and  _155
REMARK   68  A    between atoms: _155  and  _156
REMARK   69  A    between atoms: _158  and  _160
REMARK   70  A    between atoms: _160  and  _161
REMARK   71  A    between atoms: _163  and  _165
REMARK   72  A    between atoms: _165  and  _166
REMARK   73  A    between atoms: _165  and  _168
REMARK   74  A    between atoms: _171  and  _173
REMARK   75  A    between atoms: _173  and  _174
REMARK   76  A    between atoms: _173  and  _176
REMARK   77  A    between atoms: _179  and  _181
REMARK   78  A    between atoms: _181  and  _182
REMARK   79  A    between atoms: _181  and  _184
REMARK   80  A    between atoms: _184  and  _185
REMARK   81  A    between atoms: _188  and  _190
REMARK   82  A    between atoms: _190  and  _191
REMARK   83  A    between atoms: _190  and  _193
REMARK   84  A    between atoms: _193  and  _194
REMARK   85  A    between atoms: _198  and  _199
REMARK   86  A    between atoms: _204  and  _206
REMARK   87  A    between atoms: _206  and  _207
REMARK   88  A    between atoms: _210  and  _212
REMARK   89  A    between atoms: _212  and  _213
REMARK   90  A    between atoms: _212  and  _215
REMARK   91  A    between atoms: _215  and  _216
REMARK   92  A    between atoms: _221  and  _223
REMARK   93  A    between atoms: _223  and  _224
REMARK   94  A    between atoms: _223  and  _226
REMARK   95  A    between atoms: _226  and  _227
REMARK   96  A    between atoms: _230  and  _232
REMARK   97  A    between atoms: _232  and  _233
REMARK   98  A    between atoms: _232  and  _235
REMARK   99  A    between atoms: _235  and  _236
REMARK  100  A    between atoms: _239  and  _241
REMARK  101  A    between atoms: _241  and  _242
REMARK  102  A    between atoms: _244  and  _246
REMARK  103  A    between atoms: _246  and  _247
REMARK  104  A    between atoms: _246  and  _249
REMARK  105  A    between atoms: _249  and  _250
REMARK  106  A    between atoms: _250  and  _251
REMARK  107  A    between atoms: _251  and  _252
REMARK  108  A    between atoms: _261  and  _263
REMARK  109  A    between atoms: _263  and  _264
REMARK  110  A    between atoms: _263  and  _266
REMARK  111  A    between atoms: _266  and  _267
REMARK  112  A    between atoms: _267  and  _268
REMARK  113  A    between atoms: _268  and  _269
REMARK  114  A    between atoms: _278  and  _280
REMARK  115  A    between atoms: _280  and  _281
REMARK  116  A    between atoms: _280  and  _283
REMARK  117  A    between atoms: _283  and  _284
REMARK  118  A    between atoms: _287  and  _289
REMARK  119  A    between atoms: _289  and  _290
REMARK  120  A    between atoms: _289  and  _292
REMARK  121  A    between atoms: _292  and  _293
REMARK  122  A    between atoms: _296  and  _298
REMARK  123  A    between atoms: _298  and  _299
REMARK  124  A    between atoms: _298  and  _301
REMARK  125  A    between atoms: _301  and  _302
REMARK  126  A    between atoms: _305  and  _307
REMARK  127  A    between atoms: _307  and  _308
REMARK  128  A    between atoms: _307  and  _310
REMARK  129  A    between atoms: _310  and  _311
REMARK  130  A    between atoms: _314  and  _316
REMARK  131  A    between atoms: _316  and  _317
REMARK  132  A    between atoms: _316  and  _319
REMARK  133  A    between atoms: _319  and  _320
REMARK  134  A    between atoms: _323  and  _325
REMARK  135  A    between atoms: _325  and  _326
REMARK  136  A    between atoms: _328  and  _330
REMARK  137  A    between atoms: _330  and  _331
REMARK  138  A    between atoms: _334  and  _336
REMARK  139  A    between atoms: _336  and  _337
REMARK  140  A    between atoms: _336  and  _339
REMARK  141  A    between atoms: _339  and  _340
REMARK  142  A    between atoms: _343  and  _345
REMARK  143  A    between atoms: _345  and  _346
REMARK  144  A    between atoms: _345  and  _348
REMARK  145  A    between atoms: _348  and  _349
REMARK  146  A    between atoms: _352  and  _354
REMARK  147  A    between atoms: _354  and  _355
REMARK  148  A    between atoms: _354  and  _357
REMARK  149  A    between atoms: _357  and  _358
REMARK  150  A    between atoms: _361  and  _363
REMARK  151  A    between atoms: _363  and  _364
REMARK  152  A    between atoms: _363  and  _366
REMARK  153  A    between atoms: _369  and  _371
REMARK  154  A    between atoms: _371  and  _372
REMARK  155  A    between atoms: _371  and  _374
REMARK  156  A    between atoms: _374  and  _375
REMARK  157  A    between atoms: _375  and  _376
REMARK  158  A    between atoms: _379  and  _381
REMARK  159  A    between atoms: _381  and  _382
REMARK  160  A    between atoms: _381  and  _384
REMARK  161  A    between atoms: _384  and  _385
REMARK  162  A    between atoms: _385  and  _386
REMARK  163  A    between atoms: _386  and  _387
REMARK  164  A    between atoms: _387  and  _388
REMARK  165  A    between atoms: _392  and  _394
REMARK  166  A    between atoms: _394  and  _395
REMARK  167  A    between atoms: _394  and  _397
REMARK  168  A    between atoms: _397  and  _398
REMARK  169  A    between atoms: _398  and  _399
REMARK  170  A    between atoms: _401  and  _403
REMARK  171  A    between atoms: _403  and  _404
REMARK  172  A    between atoms: _403  and  _406
REMARK  173  A    between atoms: _406  and  _407
REMARK  174  A    between atoms: _410  and  _412
REMARK  175  A    between atoms: _412  and  _413
REMARK  176  A    between atoms: _412  and  _415
REMARK  177  A    between atoms: _418  and  _420
REMARK  178  A    between atoms: _420  and  _421
REMARK  179  A    between atoms: _423  and  _425
REMARK  180  A    between atoms: _425  and  _426
REMARK  181  A    between atoms: _425  and  _428
REMARK  182  A    between atoms: _428  and  _429
REMARK  183  A    between atoms: _432  and  _434
REMARK  184  A    between atoms: _434  and  _435
REMARK  185  A    between atoms: _437  and  _439
REMARK  186  A    between atoms: _439  and  _440
REMARK  187  A    between atoms: _442  and  _444
REMARK  188  A    between atoms: _444  and  _445
REMARK  189  A    between atoms: _444  and  _447
REMARK  190  A    between atoms: _447  and  _448
REMARK  191  A    between atoms: _454  and  _456
REMARK  192  A    between atoms: _456  and  _457
REMARK  193  A    between atoms: _456  and  _459
REMARK  194  A    between atoms: _462  and  _464
REMARK  195  A    between atoms: _464  and  _465
REMARK  196  A    between atoms: _464  and  _467
REMARK  197  A    between atoms: _470  and  _472
REMARK  198  A    between atoms: _472  and  _473
REMARK  199  A    between atoms: _472  and  _475
REMARK  200  A    between atoms: _475  and  _476
REMARK  201  A    between atoms: _480  and  _481
REMARK  202  A    between atoms: _486  and  _488
REMARK  203  A    between atoms: _488  and  _489
REMARK  204  A    between atoms: _488  and  _491
REMARK  205  A    between atoms: _491  and  _492
REMARK  206  A    between atoms: _496  and  _497
REMARK  207  A    between atoms: _502  and  _504
REMARK  208  A    between atoms: _504  and  _505
REMARK  209  A    between atoms: _508  and  _510
REMARK  210  A    between atoms: _510  and  _511
REMARK  211  A    between atoms: _510  and  _513
REMARK  212  A    between atoms: _513  and  _514
REMARK  213  A    between atoms: _519  and  _521
REMARK  214  A    between atoms: _521  and  _522
REMARK  215  A    between atoms: _521  and  _524
REMARK  216  A    between atoms: _524  and  _525
REMARK  217  A    between atoms: _528  and  _530
REMARK  218  A    between atoms: _530  and  _531
REMARK  219  A    between atoms: _530  and  _533
REMARK  220  A    between atoms: _533  and  _534
REMARK  221  A    between atoms: _537  and  _539
REMARK  222  A    between atoms: _539  and  _540
REMARK  223  A    between atoms: _542  and  _544
REMARK  224  A    between atoms: _544  and  _545
REMARK  225  A    between atoms: _544  and  _547
REMARK  226  A    between atoms: _547  and  _548
REMARK  227  A    between atoms: _548  and  _549
REMARK  228  A    between atoms: _549  and  _550
REMARK                            x       y       z     vdW  Elec       q    Type
REMARK                         _______ _______ _______ _____ _____    ______ ____
ROOT
ATOM      1  O   HOH     1      14.956  -3.829  24.996  0.00  0.00    +0.000 OA
ENDROOT
TORSDOF 0
REMARK  Name = ../refined-set-2016/3ekw/3ekw_pocket.pdb
REMARK  228 active torsions:
REMARK  status: ('A' for Active; 'I' for Inactive)
REMARK    1  A    between atoms: _1  and  _3
REMARK    2  A    between atoms: _3  and  _4
REMARK    3  A    between atoms: _3  and  _6
REMARK    4  A    between atoms: _6  and  _7
REMARK    5  A    between atoms: _7  and  _8
REMARK    6  A    between atoms: _8  and  _9
REMARK    7  A    between atoms: _18  and  _20
REMARK    8  A    between atoms: _20  and  _21
REMARK    9  A    between atoms: _20  and  _23
REMARK   10  A    between atoms: _23  and  _24
REMARK   11  A    between atoms: _27  and  _29
REMARK   12  A    between atoms: _29  and  _30
REMARK   13  A    between atoms: _29  and  _32
REMARK   14  A    between atoms: _32  and  _33
REMARK   15  A    between atoms: _36  and  _38
REMARK   16  A    between atoms: _38  and  _39
REMARK   17  A    between atoms: _38  and  _41
REMARK   18  A    between atoms: _41  and  _42
REMARK   19  A    between atoms: _45  and  _47
REMARK   20  A    between atoms: _47  and  _48
REMARK   21  A    between atoms: _47  and  _50
REMARK   22  A    between atoms: _50  and  _51
REMARK   23  A    between atoms: _54  and  _56
REMARK   24  A    between atoms: _56  and  _57
REMARK   25  A    between atoms: _59  and  _61
REMARK   26  A    between atoms: _61  and  _62
REMARK   27  A    between atoms: _65  and  _67
REMARK   28  A    between atoms: _67  and  _68
REMARK   29  A    between atoms: _67  and  _70
REMARK   30  A    between atoms: _70  and  _71
REMARK   31  A    between atoms: _74  and  _76
REMARK   32  A    between atoms: _76  and  _77
REMARK   33  A    between atoms: _76  and  _79
REMARK   34  A    between atoms: _79  and  _80
REMARK   35  A    between atoms: _83  and  _85
REMARK   36  A    between atoms: _85  and  _86
REMARK   37  A    between atoms: _85  and  _88
REMARK   38  A    between atoms: _88  and  _89
REMARK   39  A    between atoms: _92  and  _94
REMARK   40  A    between atoms: _94  and  _95
REMARK   41  A    between atoms: _94  and  _97
REMARK   42  A    between atoms: _100  and  _102
REMARK   43  A    between atoms: _102  and  _103
REMARK   44  A    between atoms: _102  and  _105
REMARK   45  A    between atoms: _105  and  _106
REMARK   46  A    between atoms: _106  and  _107
REMARK   47  A    between atoms: _107  and  _108
REMARK   48  A    between atoms: _108  and  _109
REMARK   49  A    between atoms: _113  and  _115
REMARK   50  A    between atoms: _115  and  _116
REMARK   51  A    between atoms: _115  and  _118
REMARK   52  A    between atoms: _118  and  _119
REMARK   53  A    between atoms: _119  and  _120
REMARK   54  A    between atoms: _122  and  _124
REMARK   55  A    between atoms: _124  and  _125
REMARK   56  A    between atoms: _124  and  _127
REMARK   57  A    between atoms: _127  and  _128
REMARK   58  A    between atoms: _131  and  _133
REMARK   59  A    between atoms: _133  and  _134
REMARK   60  A    between atoms: _133  and  _136
REMARK   61  A    between atoms: _139  and  _141
REMARK   62  A    between atoms: _141  and  _142
REMARK   63  A    between atoms: _144  and  _146
REMARK   64  A    between atoms: _146  and  _147
REMARK   65  A    between atoms: _146  and  _149
REMARK   66  A    between atoms: _149  and  _150
REMARK   67  A    between atoms: _153  and  _155
REMARK   68  A    between atoms: _155  and  _156
REMARK   69  A    between atoms: _158  and  _160
REMARK   70  A    between atoms: _160  and  _161
REMARK   71  A    between atoms: _163  and  _165
REMARK   72  A    between atoms: _165  and  _166
REMARK   73  A    between atoms: _165  and  _168
REMARK   74  A    between atoms: _171  and  _173
REMARK   75  A    between atoms: _173  and  _174
REMARK   76  A    between atoms: _173  and  _176
REMARK   77  A    between atoms: _179  and  _181
REMARK   78  A    between atoms: _181  and  _182
REMARK   79  A    between atoms: _181  and  _184
REMARK   80  A    between atoms: _184  and  _185
REMARK   81  A    between atoms: _188  and  _190
REMARK   82  A    between atoms: _190  and  _191
REMARK   83  A    between atoms: _190  and  _193
REMARK   84  A    between atoms: _193  and  _194
REMARK   85  A    between atoms: _198  and  _199
REMARK   86  A    between atoms: _204  and  _206
REMARK   87  A    between atoms: _206  and  _207
REMARK   88  A    between atoms: _210  and  _212
REMARK   89  A    between atoms: _212  and  _213
REMARK   90  A    between atoms: _212  and  _215
REMARK   91  A    between atoms: _215  and  _216
REMARK   92  A    between atoms: _221  and  _223
REMARK   93  A    between atoms: _223  and  _224
REMARK   94  A    between atoms: _223  and  _226
REMARK   95  A    between atoms: _226  and  _227
REMARK   96  A    between atoms: _230  and  _232
REMARK   97  A    between atoms: _232  and  _233
REMARK   98  A    between atoms: _232  and  _235
REMARK   99  A    between atoms: _235  and  _236
REMARK  100  A    between atoms: _239  and  _241
REMARK  101  A    between atoms: _241  and  _242
REMARK  102  A    between atoms: _244  and  _246
REMARK  103  A    between atoms: _246  and  _247
REMARK  104  A    between atoms: _246  and  _249
REMARK  105  A    between atoms: _249  and  _250
REMARK  106  A    between atoms: _250  and  _251
REMARK  107  A    between atoms: _251  and  _252
REMARK  108  A    between atoms: _261  and  _263
REMARK  109  A    between atoms: _263  and  _264
REMARK  110  A    between atoms: _263  and  _266
REMARK  111  A    between atoms: _266  and  _267
REMARK  112  A    between atoms: _267  and  _268
REMARK  113  A    between atoms: _268  and  _269
REMARK  114  A    between atoms: _278  and  _280
REMARK  115  A    between atoms: _280  and  _281
REMARK  116  A    between atoms: _280  and  _283
REMARK  117  A    between atoms: _283  and  _284
REMARK  118  A    between atoms: _287  and  _289
REMARK  119  A    between atoms: _289  and  _290
REMARK  120  A    between atoms: _289  and  _292
REMARK  121  A    between atoms: _292  and  _293
REMARK  122  A    between atoms: _296  and  _298
REMARK  123  A    between atoms: _298  and  _299
REMARK  124  A    between atoms: _298  and  _301
REMARK  125  A    between atoms: _301  and  _302
REMARK  126  A    between atoms: _305  and  _307
REMARK  127  A    between atoms: _307  and  _308
REMARK  128  A    between atoms: _307  and  _310
REMARK  129  A    between atoms: _310  and  _311
REMARK  130  A    between atoms: _314  and  _316
REMARK  131  A    between atoms: _316  and  _317
REMARK  132  A    between atoms: _316  and  _319
REMARK  133  A    between atoms: _319  and  _320
REMARK  134  A    between atoms: _323  and  _325
REMARK  135  A    between atoms: _325  and  _326
REMARK  136  A    between atoms: _328  and  _330
REMARK  137  A    between atoms: _330  and  _331
REMARK  138  A    between atoms: _334  and  _336
REMARK  139  A    between atoms: _336  and  _337
REMARK  140  A    between atoms: _336  and  _339
REMARK  141  A    between atoms: _339  and  _340
REMARK  142  A    between atoms: _343  and  _345
REMARK  143  A    between atoms: _345  and  _346
REMARK  144  A    between atoms: _345  and  _348
REMARK  145  A    between atoms: _348  and  _349
REMARK  146  A    between atoms: _352  and  _354
REMARK  147  A    between atoms: _354  and  _355
REMARK  148  A    between atoms: _354  and  _357
REMARK  149  A    between atoms: _357  and  _358
REMARK  150  A    between atoms: _361  and  _363
REMARK  151  A    between atoms: _363  and  _364
REMARK  152  A    between atoms: _363  and  _366
REMARK  153  A    between atoms: _369  and  _371
REMARK  154  A    between atoms: _371  and  _372
REMARK  155  A    between atoms: _371  and  _374
REMARK  156  A    between atoms: _374  and  _375
REMARK  157  A    between atoms: _375  and  _376
REMARK  158  A    between atoms: _379  and  _381
REMARK  159  A    between atoms: _381  and  _382
REMARK  160  A    between atoms: _381  and  _384
REMARK  161  A    between atoms: _384  and  _385
REMARK  162  A    between atoms: _385  and  _386
REMARK  163  A    between atoms: _386  and  _387
REMARK  164  A    between atoms: _387  and  _388
REMARK  165  A    between atoms: _392  and  _394
REMARK  166  A    between atoms: _394  and  _395
REMARK  167  A    between atoms: _394  and  _397
REMARK  168  A    between atoms: _397  and  _398
REMARK  169  A    between atoms: _398  and  _399
REMARK  170  A    between atoms: _401  and  _403
REMARK  171  A    between atoms: _403  and  _404
REMARK  172  A    between atoms: _403  and  _406
REMARK  173  A    between atoms: _406  and  _407
REMARK  174  A    between atoms: _410  and  _412
REMARK  175  A    between atoms: _412  and  _413
REMARK  176  A    between atoms: _412  and  _415
REMARK  177  A    between atoms: _418  and  _420
REMARK  178  A    between atoms: _420  and  _421
REMARK  179  A    between atoms: _423  and  _425
REMARK  180  A    between atoms: _425  and  _426
REMARK  181  A    between atoms: _425  and  _428
REMARK  182  A    between atoms: _428  and  _429
REMARK  183  A    between atoms: _432  and  _434
REMARK  184  A    between atoms: _434  and  _435
REMARK  185  A    between atoms: _437  and  _439
REMARK  186  A    between atoms: _439  and  _440
REMARK  187  A    between atoms: _442  and  _444
REMARK  188  A    between atoms: _444  and  _445
REMARK  189  A    between atoms: _444  and  _447
REMARK  190  A    between atoms: _447  and  _448
REMARK  191  A    between atoms: _454  and  _456
REMARK  192  A    between atoms: _456  and  _457
REMARK  193  A    between atoms: _456  and  _459
REMARK  194  A    between atoms: _462  and  _464
REMARK  195  A    between atoms: _464  and  _465
REMARK  196  A    between atoms: _464  and  _467
REMARK  197  A    between atoms: _470  and  _472
REMARK  198  A    between atoms: _472  and  _473
REMARK  199  A    between atoms: _472  and  _475
REMARK  200  A    between atoms: _475  and  _476
REMARK  201  A    between atoms: _480  and  _481
REMARK  202  A    between atoms: _486  and  _488
REMARK  203  A    between atoms: _488  and  _489
REMARK  204  A    between atoms: _488  and  _491
REMARK  205  A    between atoms: _491  and  _492
REMARK  206  A    between atoms: _496  and  _497
REMARK  207  A    between atoms: _502  and  _504
REMARK  208  A    between atoms: _504  and  _505
REMARK  209  A    between atoms: _508  and  _510
REMARK  210  A    between atoms: _510  and  _511
REMARK  211  A    between atoms: _510  and  _513
REMARK  212  A    between atoms: _513  and  _514
REMARK  213  A    between atoms: _519  and  _521
REMARK  214  A    between atoms: _521  and  _522
REMARK  215  A    between atoms: _521  and  _524
REMARK  216  A    between atoms: _524  and  _525
REMARK  217  A    between atoms: _528  and  _530
REMARK  218  A    between atoms: _530  and  _531
REMARK  219  A    between atoms: _530  and  _533
REMARK  220  A    between atoms: _533  and  _534
REMARK  221  A    between atoms: _537  and  _539
REMARK  222  A    between atoms: _539  and  _540
REMARK  223  A    between atoms: _542  and  _544
REMARK  224  A    between atoms: _544  and  _545
REMARK  225  A    between atoms: _544  and  _547
REMARK  226  A    between atoms: _547  and  _548
REMARK  227  A    between atoms: _548  and  _549
REMARK  228  A    between atoms: _549  and  _550
REMARK                            x       y       z     vdW  Elec       q    Type
REMARK                         _______ _______ _______ _____ _____    ______ ____
ROOT
ATOM      1  O   HOH     1      14.971  -8.573   7.043  0.00  0.00    +0.000 OA
ENDROOT
TORSDOF 0
REMARK  Name = ../refined-set-2016/3ekw/3ekw_pocket.pdb
REMARK  228 active torsions:
REMARK  status: ('A' for Active; 'I' for Inactive)
REMARK    1  A    between atoms: _1  and  _3
REMARK    2  A    between atoms: _3  and  _4
REMARK    3  A    between atoms: _3  and  _6
REMARK    4  A    between atoms: _6  and  _7
REMARK    5  A    between atoms: _7  and  _8
REMARK    6  A    between atoms: _8  and  _9
REMARK    7  A    between atoms: _18  and  _20
REMARK    8  A    between atoms: _20  and  _21
REMARK    9  A    between atoms: _20  and  _23
REMARK   10  A    between atoms: _23  and  _24
REMARK   11  A    between atoms: _27  and  _29
REMARK   12  A    between atoms: _29  and  _30
REMARK   13  A    between atoms: _29  and  _32
REMARK   14  A    between atoms: _32  and  _33
REMARK   15  A    between atoms: _36  and  _38
REMARK   16  A    between atoms: _38  and  _39
REMARK   17  A    between atoms: _38  and  _41
REMARK   18  A    between atoms: _41  and  _42
REMARK   19  A    between atoms: _45  and  _47
REMARK   20  A    between atoms: _47  and  _48
REMARK   21  A    between atoms: _47  and  _50
REMARK   22  A    between atoms: _50  and  _51
REMARK   23  A    between atoms: _54  and  _56
REMARK   24  A    between atoms: _56  and  _57
REMARK   25  A    between atoms: _59  and  _61
REMARK   26  A    between atoms: _61  and  _62
REMARK   27  A    between atoms: _65  and  _67
REMARK   28  A    between atoms: _67  and  _68
REMARK   29  A    between atoms: _67  and  _70
REMARK   30  A    between atoms: _70  and  _71
REMARK   31  A    between atoms: _74  and  _76
REMARK   32  A    between atoms: _76  and  _77
REMARK   33  A    between atoms: _76  and  _79
REMARK   34  A    between atoms: _79  and  _80
REMARK   35  A    between atoms: _83  and  _85
REMARK   36  A    between atoms: _85  and  _86
REMARK   37  A    between atoms: _85  and  _88
REMARK   38  A    between atoms: _88  and  _89
REMARK   39  A    between atoms: _92  and  _94
REMARK   40  A    between atoms: _94  and  _95
REMARK   41  A    between atoms: _94  and  _97
REMARK   42  A    between atoms: _100  and  _102
REMARK   43  A    between atoms: _102  and  _103
REMARK   44  A    between atoms: _102  and  _105
REMARK   45  A    between atoms: _105  and  _106
REMARK   46  A    between atoms: _106  and  _107
REMARK   47  A    between atoms: _107  and  _108
REMARK   48  A    between atoms: _108  and  _109
REMARK   49  A    between atoms: _113  and  _115
REMARK   50  A    between atoms: _115  and  _116
REMARK   51  A    between atoms: _115  and  _118
REMARK   52  A    between atoms: _118  and  _119
REMARK   53  A    between atoms: _119  and  _120
REMARK   54  A    between atoms: _122  and  _124
REMARK   55  A    between atoms: _124  and  _125
REMARK   56  A    between atoms: _124  and  _127
REMARK   57  A    between atoms: _127  and  _128
REMARK   58  A    between atoms: _131  and  _133
REMARK   59  A    between atoms: _133  and  _134
REMARK   60  A    between atoms: _133  and  _136
REMARK   61  A    between atoms: _139  and  _141
REMARK   62  A    between atoms: _141  and  _142
REMARK   63  A    between atoms: _144  and  _146
REMARK   64  A    between atoms: _146  and  _147
REMARK   65  A    between atoms: _146  and  _149
REMARK   66  A    between atoms: _149  and  _150
REMARK   67  A    between atoms: _153  and  _155
REMARK   68  A    between atoms: _155  and  _156
REMARK   69  A    between atoms: _158  and  _160
REMARK   70  A    between atoms: _160  and  _161
REMARK   71  A    between atoms: _163  and  _165
REMARK   72  A    between atoms: _165  and  _166
REMARK   73  A    between atoms: _165  and  _168
REMARK   74  A    between atoms: _171  and  _173
REMARK   75  A    between atoms: _173  and  _174
REMARK   76  A    between atoms: _173  and  _176
REMARK   77  A    between atoms: _179  and  _181
REMARK   78  A    between atoms: _181  and  _182
REMARK   79  A    between atoms: _181  and  _184
REMARK   80  A    between atoms: _184  and  _185
REMARK   81  A    between atoms: _188  and  _190
REMARK   82  A    between atoms: _190  and  _191
REMARK   83  A    between atoms: _190  and  _193
REMARK   84  A    between atoms: _193  and  _194
REMARK   85  A    between atoms: _198  and  _199
REMARK   86  A    between atoms: _204  and  _206
REMARK   87  A    between atoms: _206  and  _207
REMARK   88  A    between atoms: _210  and  _212
REMARK   89  A    between atoms: _212  and  _213
REMARK   90  A    between atoms: _212  and  _215
REMARK   91  A    between atoms: _215  and  _216
REMARK   92  A    between atoms: _221  and  _223
REMARK   93  A    between atoms: _223  and  _224
REMARK   94  A    between atoms: _223  and  _226
REMARK   95  A    between atoms: _226  and  _227
REMARK   96  A    between atoms: _230  and  _232
REMARK   97  A    between atoms: _232  and  _233
REMARK   98  A    between atoms: _232  and  _235
REMARK   99  A    between atoms: _235  and  _236
REMARK  100  A    between atoms: _239  and  _241
REMARK  101  A    between atoms: _241  and  _242
REMARK  102  A    between atoms: _244  and  _246
REMARK  103  A    between atoms: _246  and  _247
REMARK  104  A    between atoms: _246  and  _249
REMARK  105  A    between atoms: _249  and  _250
REMARK  106  A    between atoms: _250  and  _251
REMARK  107  A    between atoms: _251  and  _252
REMARK  108  A    between atoms: _261  and  _263
REMARK  109  A    between atoms: _263  and  _264
REMARK  110  A    between atoms: _263  and  _266
REMARK  111  A    between atoms: _266  and  _267
REMARK  112  A    between atoms: _267  and  _268
REMARK  113  A    between atoms: _268  and  _269
REMARK  114  A    between atoms: _278  and  _280
REMARK  115  A    between atoms: _280  and  _281
REMARK  116  A    between atoms: _280  and  _283
REMARK  117  A    between atoms: _283  and  _284
REMARK  118  A    between atoms: _287  and  _289
REMARK  119  A    between atoms: _289  and  _290
REMARK  120  A    between atoms: _289  and  _292
REMARK  121  A    between atoms: _292  and  _293
REMARK  122  A    between atoms: _296  and  _298
REMARK  123  A    between atoms: _298  and  _299
REMARK  124  A    between atoms: _298  and  _301
REMARK  125  A    between atoms: _301  and  _302
REMARK  126  A    between atoms: _305  and  _307
REMARK  127  A    between atoms: _307  and  _308
REMARK  128  A    between atoms: _307  and  _310
REMARK  129  A    between atoms: _310  and  _311
REMARK  130  A    between atoms: _314  and  _316
REMARK  131  A    between atoms: _316  and  _317
REMARK  132  A    between atoms: _316  and  _319
REMARK  133  A    between atoms: _319  and  _320
REMARK  134  A    between atoms: _323  and  _325
REMARK  135  A    between atoms: _325  and  _326
REMARK  136  A    between atoms: _328  and  _330
REMARK  137  A    between atoms: _330  and  _331
REMARK  138  A    between atoms: _334  and  _336
REMARK  139  A    between atoms: _336  and  _337
REMARK  140  A    between atoms: _336  and  _339
REMARK  141  A    between atoms: _339  and  _340
REMARK  142  A    between atoms: _343  and  _345
REMARK  143  A    between atoms: _345  and  _346
REMARK  144  A    between atoms: _345  and  _348
REMARK  145  A    between atoms: _348  and  _349
REMARK  146  A    between atoms: _352  and  _354
REMARK  147  A    between atoms: _354  and  _355
REMARK  148  A    between atoms: _354  and  _357
REMARK  149  A    between atoms: _357  and  _358
REMARK  150  A    between atoms: _361  and  _363
REMARK  151  A    between atoms: _363  and  _364
REMARK  152  A    between atoms: _363  and  _366
REMARK  153  A    between atoms: _369  and  _371
REMARK  154  A    between atoms: _371  and  _372
REMARK  155  A    between atoms: _371  and  _374
REMARK  156  A    between atoms: _374  and  _375
REMARK  157  A    between atoms: _375  and  _376
REMARK  158  A    between atoms: _379  and  _381
REMARK  159  A    between atoms: _381  and  _382
REMARK  160  A    between atoms: _381  and  _384
REMARK  161  A    between atoms: _384  and  _385
REMARK  162  A    between atoms: _385  and  _386
REMARK  163  A    between atoms: _386  and  _387
REMARK  164  A    between atoms: _387  and  _388
REMARK  165  A    between atoms: _392  and  _394
REMARK  166  A    between atoms: _394  and  _395
REMARK  167  A    between atoms: _394  and  _397
REMARK  168  A    between atoms: _397  and  _398
REMARK  169  A    between atoms: _398  and  _399
REMARK  170  A    between atoms: _401  and  _403
REMARK  171  A    between atoms: _403  and  _404
REMARK  172  A    between atoms: _403  and  _406
REMARK  173  A    between atoms: _406  and  _407
REMARK  174  A    between atoms: _410  and  _412
REMARK  175  A    between atoms: _412  and  _413
REMARK  176  A    between atoms: _412  and  _415
REMARK  177  A    between atoms: _418  and  _420
REMARK  178  A    between atoms: _420  and  _421
REMARK  179  A    between atoms: _423  and  _425
REMARK  180  A    between atoms: _425  and  _426
REMARK  181  A    between atoms: _425  and  _428
REMARK  182  A    between atoms: _428  and  _429
REMARK  183  A    between atoms: _432  and  _434
REMARK  184  A    between atoms: _434  and  _435
REMARK  185  A    between atoms: _437  and  _439
REMARK  186  A    between atoms: _439  and  _440
REMARK  187  A    between atoms: _442  and  _444
REMARK  188  A    between atoms: _444  and  _445
REMARK  189  A    between atoms: _444  and  _447
REMARK  190  A    between atoms: _447  and  _448
REMARK  191  A    between atoms: _454  and  _456
REMARK  192  A    between atoms: _456  and  _457
REMARK  193  A    between atoms: _456  and  _459
REMARK  194  A    between atoms: _462  and  _464
REMARK  195  A    between atoms: _464  and  _465
REMARK  196  A    between atoms: _464  and  _467
REMARK  197  A    between atoms: _470  and  _472
REMARK  198  A    between atoms: _472  and  _473
REMARK  199  A    between atoms: _472  and  _475
REMARK  200  A    between atoms: _475  and  _476
REMARK  201  A    between atoms: _480  and  _481
REMARK  202  A    between atoms: _486  and  _488
REMARK  203  A    between atoms: _488  and  _489
REMARK  204  A    between atoms: _488  and  _491
REMARK  205  A    between atoms: _491  and  _492
REMARK  206  A    between atoms: _496  and  _497
REMARK  207  A    between atoms: _502  and  _504
REMARK  208  A    between atoms: _504  and  _505
REMARK  209  A    between atoms: _508  and  _510
REMARK  210  A    between atoms: _510  and  _511
REMARK  211  A    between atoms: _510  and  _513
REMARK  212  A    between atoms: _513  and  _514
REMARK  213  A    between atoms: _519  and  _521
REMARK  214  A    between atoms: _521  and  _522
REMARK  215  A    between atoms: _521  and  _524
REMARK  216  A    between atoms: _524  and  _525
REMARK  217  A    between atoms: _528  and  _530
REMARK  218  A    between atoms: _530  and  _531
REMARK  219  A    between atoms: _530  and  _533
REMARK  220  A    between atoms: _533  and  _534
REMARK  221  A    between atoms: _537  and  _539
REMARK  222  A    between atoms: _539  and  _540
REMARK  223  A    between atoms: _542  and  _544
REMARK  224  A    between atoms: _544  and  _545
REMARK  225  A    between atoms: _544  and  _547
REMARK  226  A    between atoms: _547  and  _548
REMARK  227  A    between atoms: _548  and  _549
REMARK  228  A    between atoms: _549  and  _550
REMARK                            x       y       z     vdW  Elec       q    Type
REMARK                         _______ _______ _______ _____ _____    ______ ____
ROOT
ATOM      1  O   HOH     1      25.929  -7.629  23.478  0.00  0.00    +0.000 OA
ENDROOT
TORSDOF 0
REMARK  Name = ../refined-set-2016/3ekw/3ekw_pocket.pdb
REMARK  228 active torsions:
REMARK  status: ('A' for Active; 'I' for Inactive)
REMARK    1  A    between atoms: _1  and  _3
REMARK    2  A    between atoms: _3  and  _4
REMARK    3  A    between atoms: _3  and  _6
REMARK    4  A    between atoms: _6  and  _7
REMARK    5  A    between atoms: _7  and  _8
REMARK    6  A    between atoms: _8  and  _9
REMARK    7  A    between atoms: _18  and  _20
REMARK    8  A    between atoms: _20  and  _21
REMARK    9  A    between atoms: _20  and  _23
REMARK   10  A    between atoms: _23  and  _24
REMARK   11  A    between atoms: _27  and  _29
REMARK   12  A    between atoms: _29  and  _30
REMARK   13  A    between atoms: _29  and  _32
REMARK   14  A    between atoms: _32  and  _33
REMARK   15  A    between atoms: _36  and  _38
REMARK   16  A    between atoms: _38  and  _39
REMARK   17  A    between atoms: _38  and  _41
REMARK   18  A    between atoms: _41  and  _42
REMARK   19  A    between atoms: _45  and  _47
REMARK   20  A    between atoms: _47  and  _48
REMARK   21  A    between atoms: _47  and  _50
REMARK   22  A    between atoms: _50  and  _51
REMARK   23  A    between atoms: _54  and  _56
REMARK   24  A    between atoms: _56  and  _57
REMARK   25  A    between atoms: _59  and  _61
REMARK   26  A    between atoms: _61  and  _62
REMARK   27  A    between atoms: _65  and  _67
REMARK   28  A    between atoms: _67  and  _68
REMARK   29  A    between atoms: _67  and  _70
REMARK   30  A    between atoms: _70  and  _71
REMARK   31  A    between atoms: _74  and  _76
REMARK   32  A    between atoms: _76  and  _77
REMARK   33  A    between atoms: _76  and  _79
REMARK   34  A    between atoms: _79  and  _80
REMARK   35  A    between atoms: _83  and  _85
REMARK   36  A    between atoms: _85  and  _86
REMARK   37  A    between atoms: _85  and  _88
REMARK   38  A    between atoms: _88  and  _89
REMARK   39  A    between atoms: _92  and  _94
REMARK   40  A    between atoms: _94  and  _95
REMARK   41  A    between atoms: _94  and  _97
REMARK   42  A    between atoms: _100  and  _102
REMARK   43  A    between atoms: _102  and  _103
REMARK   44  A    between atoms: _102  and  _105
REMARK   45  A    between atoms: _105  and  _106
REMARK   46  A    between atoms: _106  and  _107
REMARK   47  A    between atoms: _107  and  _108
REMARK   48  A    between atoms: _108  and  _109
REMARK   49  A    between atoms: _113  and  _115
REMARK   50  A    between atoms: _115  and  _116
REMARK   51  A    between atoms: _115  and  _118
REMARK   52  A    between atoms: _118  and  _119
REMARK   53  A    between atoms: _119  and  _120
REMARK   54  A    between atoms: _122  and  _124
REMARK   55  A    between atoms: _124  and  _125
REMARK   56  A    between atoms: _124  and  _127
REMARK   57  A    between atoms: _127  and  _128
REMARK   58  A    between atoms: _131  and  _133
REMARK   59  A    between atoms: _133  and  _134
REMARK   60  A    between atoms: _133  and  _136
REMARK   61  A    between atoms: _139  and  _141
REMARK   62  A    between atoms: _141  and  _142
REMARK   63  A    between atoms: _144  and  _146
REMARK   64  A    between atoms: _146  and  _147
REMARK   65  A    between atoms: _146  and  _149
REMARK   66  A    between atoms: _149  and  _150
REMARK   67  A    between atoms: _153  and  _155
REMARK   68  A    between atoms: _155  and  _156
REMARK   69  A    between atoms: _158  and  _160
REMARK   70  A    between atoms: _160  and  _161
REMARK   71  A    between atoms: _163  and  _165
REMARK   72  A    between atoms: _165  and  _166
REMARK   73  A    between atoms: _165  and  _168
REMARK   74  A    between atoms: _171  and  _173
REMARK   75  A    between atoms: _173  and  _174
REMARK   76  A    between atoms: _173  and  _176
REMARK   77  A    between atoms: _179  and  _181
REMARK   78  A    between atoms: _181  and  _182
REMARK   79  A    between atoms: _181  and  _184
REMARK   80  A    between atoms: _184  and  _185
REMARK   81  A    between atoms: _188  and  _190
REMARK   82  A    between atoms: _190  and  _191
REMARK   83  A    between atoms: _190  and  _193
REMARK   84  A    between atoms: _193  and  _194
REMARK   85  A    between atoms: _198  and  _199
REMARK   86  A    between atoms: _204  and  _206
REMARK   87  A    between atoms: _206  and  _207
REMARK   88  A    between atoms: _210  and  _212
REMARK   89  A    between atoms: _212  and  _213
REMARK   90  A    between atoms: _212  and  _215
REMARK   91  A    between atoms: _215  and  _216
REMARK   92  A    between atoms: _221  and  _223
REMARK   93  A    between atoms: _223  and  _224
REMARK   94  A    between atoms: _223  and  _226
REMARK   95  A    between atoms: _226  and  _227
REMARK   96  A    between atoms: _230  and  _232
REMARK   97  A    between atoms: _232  and  _233
REMARK   98  A    between atoms: _232  and  _235
REMARK   99  A    between atoms: _235  and  _236
REMARK  100  A    between atoms: _239  and  _241
REMARK  101  A    between atoms: _241  and  _242
REMARK  102  A    between atoms: _244  and  _246
REMARK  103  A    between atoms: _246  and  _247
REMARK  104  A    between atoms: _246  and  _249
REMARK  105  A    between atoms: _249  and  _250
REMARK  106  A    between atoms: _250  and  _251
REMARK  107  A    between atoms: _251  and  _252
REMARK  108  A    between atoms: _261  and  _263
REMARK  109  A    between atoms: _263  and  _264
REMARK  110  A    between atoms: _263  and  _266
REMARK  111  A    between atoms: _266  and  _267
REMARK  112  A    between atoms: _267  and  _268
REMARK  113  A    between atoms: _268  and  _269
REMARK  114  A    between atoms: _278  and  _280
REMARK  115  A    between atoms: _280  and  _281
REMARK  116  A    between atoms: _280  and  _283
REMARK  117  A    between atoms: _283  and  _284
REMARK  118  A    between atoms: _287  and  _289
REMARK  119  A    between atoms: _289  and  _290
REMARK  120  A    between atoms: _289  and  _292
REMARK  121  A    between atoms: _292  and  _293
REMARK  122  A    between atoms: _296  and  _298
REMARK  123  A    between atoms: _298  and  _299
REMARK  124  A    between atoms: _298  and  _301
REMARK  125  A    between atoms: _301  and  _302
REMARK  126  A    between atoms: _305  and  _307
REMARK  127  A    between atoms: _307  and  _308
REMARK  128  A    between atoms: _307  and  _310
REMARK  129  A    between atoms: _310  and  _311
REMARK  130  A    between atoms: _314  and  _316
REMARK  131  A    between atoms: _316  and  _317
REMARK  132  A    between atoms: _316  and  _319
REMARK  133  A    between atoms: _319  and  _320
REMARK  134  A    between atoms: _323  and  _325
REMARK  135  A    between atoms: _325  and  _326
REMARK  136  A    between atoms: _328  and  _330
REMARK  137  A    between atoms: _330  and  _331
REMARK  138  A    between atoms: _334  and  _336
REMARK  139  A    between atoms: _336  and  _337
REMARK  140  A    between atoms: _336  and  _339
REMARK  141  A    between atoms: _339  and  _340
REMARK  142  A    between atoms: _343  and  _345
REMARK  143  A    between atoms: _345  and  _346
REMARK  144  A    between atoms: _345  and  _348
REMARK  145  A    between atoms: _348  and  _349
REMARK  146  A    between atoms: _352  and  _354
REMARK  147  A    between atoms: _354  and  _355
REMARK  148  A    between atoms: _354  and  _357
REMARK  149  A    between atoms: _357  and  _358
REMARK  150  A    between atoms: _361  and  _363
REMARK  151  A    between atoms: _363  and  _364
REMARK  152  A    between atoms: _363  and  _366
REMARK  153  A    between atoms: _369  and  _371
REMARK  154  A    between atoms: _371  and  _372
REMARK  155  A    between atoms: _371  and  _374
REMARK  156  A    between atoms: _374  and  _375
REMARK  157  A    between atoms: _375  and  _376
REMARK  158  A    between atoms: _379  and  _381
REMARK  159  A    between atoms: _381  and  _382
REMARK  160  A    between atoms: _381  and  _384
REMARK  161  A    between atoms: _384  and  _385
REMARK  162  A    between atoms: _385  and  _386
REMARK  163  A    between atoms: _386  and  _387
REMARK  164  A    between atoms: _387  and  _388
REMARK  165  A    between atoms: _392  and  _394
REMARK  166  A    between atoms: _394  and  _395
REMARK  167  A    between atoms: _394  and  _397
REMARK  168  A    between atoms: _397  and  _398
REMARK  169  A    between atoms: _398  and  _399
REMARK  170  A    between atoms: _401  and  _403
REMARK  171  A    between atoms: _403  and  _404
REMARK  172  A    between atoms: _403  and  _406
REMARK  173  A    between atoms: _406  and  _407
REMARK  174  A    between atoms: _410  and  _412
REMARK  175  A    between atoms: _412  and  _413
REMARK  176  A    between atoms: _412  and  _415
REMARK  177  A    between atoms: _418  and  _420
REMARK  178  A    between atoms: _420  and  _421
REMARK  179  A    between atoms: _423  and  _425
REMARK  180  A    between atoms: _425  and  _426
REMARK  181  A    between atoms: _425  and  _428
REMARK  182  A    between atoms: _428  and  _429
REMARK  183  A    between atoms: _432  and  _434
REMARK  184  A    between atoms: _434  and  _435
REMARK  185  A    between atoms: _437  and  _439
REMARK  186  A    between atoms: _439  and  _440
REMARK  187  A    between atoms: _442  and  _444
REMARK  188  A    between atoms: _444  and  _445
REMARK  189  A    between atoms: _444  and  _447
REMARK  190  A    between atoms: _447  and  _448
REMARK  191  A    between atoms: _454  and  _456
REMARK  192  A    between atoms: _456  and  _457
REMARK  193  A    between atoms: _456  and  _459
REMARK  194  A    between atoms: _462  and  _464
REMARK  195  A    between atoms: _464  and  _465
REMARK  196  A    between atoms: _464  and  _467
REMARK  197  A    between atoms: _470  and  _472
REMARK  198  A    between atoms: _472  and  _473
REMARK  199  A    between atoms: _472  and  _475
REMARK  200  A    between atoms: _475  and  _476
REMARK  201  A    between atoms: _480  and  _481
REMARK  202  A    between atoms: _486  and  _488
REMARK  203  A    between atoms: _488  and  _489
REMARK  204  A    between atoms: _488  and  _491
REMARK  205  A    between atoms: _491  and  _492
REMARK  206  A    between atoms: _496  and  _497
REMARK  207  A    between atoms: _502  and  _504
REMARK  208  A    between atoms: _504  and  _505
REMARK  209  A    between atoms: _508  and  _510
REMARK  210  A    between atoms: _510  and  _511
REMARK  211  A    between atoms: _510  and  _513
REMARK  212  A    between atoms: _513  and  _514
REMARK  213  A    between atoms: _519  and  _521
REMARK  214  A    between atoms: _521  and  _522
REMARK  215  A    between atoms: _521  and  _524
REMARK  216  A    between atoms: _524  and  _525
REMARK  217  A    between atoms: _528  and  _530
REMARK  218  A    between atoms: _530  and  _531
REMARK  219  A    between atoms: _530  and  _533
REMARK  220  A    between atoms: _533  and  _534
REMARK  221  A    between atoms: _537  and  _539
REMARK  222  A    between atoms: _539  and  _540
REMARK  223  A    between atoms: _542  and  _544
REMARK  224  A    between atoms: _544  and  _545
REMARK  225  A    between atoms: _544  and  _547
REMARK  226  A    between atoms: _547  and  _548
REMARK  227  A    between atoms: _548  and  _549
REMARK  228  A    between atoms: _549  and  _550
REMARK                            x       y       z     vdW  Elec       q    Type
REMARK                         _______ _______ _______ _____ _____    ______ ____
ROOT
ATOM      1  O   HOH     1      17.299 -13.740  13.941  0.00  0.00    +0.000 OA
ENDROOT
TORSDOF 0
REMARK  Name = ../refined-set-2016/3ekw/3ekw_pocket.pdb
REMARK  228 active torsions:
REMARK  status: ('A' for Active; 'I' for Inactive)
REMARK    1  A    between atoms: _1  and  _3
REMARK    2  A    between atoms: _3  and  _4
REMARK    3  A    between atoms: _3  and  _6
REMARK    4  A    between atoms: _6  and  _7
REMARK    5  A    between atoms: _7  and  _8
REMARK    6  A    between atoms: _8  and  _9
REMARK    7  A    between atoms: _18  and  _20
REMARK    8  A    between atoms: _20  and  _21
REMARK    9  A    between atoms: _20  and  _23
REMARK   10  A    between atoms: _23  and  _24
REMARK   11  A    between atoms: _27  and  _29
REMARK   12  A    between atoms: _29  and  _30
REMARK   13  A    between atoms: _29  and  _32
REMARK   14  A    between atoms: _32  and  _33
REMARK   15  A    between atoms: _36  and  _38
REMARK   16  A    between atoms: _38  and  _39
REMARK   17  A    between atoms: _38  and  _41
REMARK   18  A    between atoms: _41  and  _42
REMARK   19  A    between atoms: _45  and  _47
REMARK   20  A    between atoms: _47  and  _48
REMARK   21  A    between atoms: _47  and  _50
REMARK   22  A    between atoms: _50  and  _51
REMARK   23  A    between atoms: _54  and  _56
REMARK   24  A    between atoms: _56  and  _57
REMARK   25  A    between atoms: _59  and  _61
REMARK   26  A    between atoms: _61  and  _62
REMARK   27  A    between atoms: _65  and  _67
REMARK   28  A    between atoms: _67  and  _68
REMARK   29  A    between atoms: _67  and  _70
REMARK   30  A    between atoms: _70  and  _71
REMARK   31  A    between atoms: _74  and  _76
REMARK   32  A    between atoms: _76  and  _77
REMARK   33  A    between atoms: _76  and  _79
REMARK   34  A    between atoms: _79  and  _80
REMARK   35  A    between atoms: _83  and  _85
REMARK   36  A    between atoms: _85  and  _86
REMARK   37  A    between atoms: _85  and  _88
REMARK   38  A    between atoms: _88  and  _89
REMARK   39  A    between atoms: _92  and  _94
REMARK   40  A    between atoms: _94  and  _95
REMARK   41  A    between atoms: _94  and  _97
REMARK   42  A    between atoms: _100  and  _102
REMARK   43  A    between atoms: _102  and  _103
REMARK   44  A    between atoms: _102  and  _105
REMARK   45  A    between atoms: _105  and  _106
REMARK   46  A    between atoms: _106  and  _107
REMARK   47  A    between atoms: _107  and  _108
REMARK   48  A    between atoms: _108  and  _109
REMARK   49  A    between atoms: _113  and  _115
REMARK   50  A    between atoms: _115  and  _116
REMARK   51  A    between atoms: _115  and  _118
REMARK   52  A    between atoms: _118  and  _119
REMARK   53  A    between atoms: _119  and  _120
REMARK   54  A    between atoms: _122  and  _124
REMARK   55  A    between atoms: _124  and  _125
REMARK   56  A    between atoms: _124  and  _127
REMARK   57  A    between atoms: _127  and  _128
REMARK   58  A    between atoms: _131  and  _133
REMARK   59  A    between atoms: _133  and  _134
REMARK   60  A    between atoms: _133  and  _136
REMARK   61  A    between atoms: _139  and  _141
REMARK   62  A    between atoms: _141  and  _142
REMARK   63  A    between atoms: _144  and  _146
REMARK   64  A    between atoms: _146  and  _147
REMARK   65  A    between atoms: _146  and  _149
REMARK   66  A    between atoms: _149  and  _150
REMARK   67  A    between atoms: _153  and  _155
REMARK   68  A    between atoms: _155  and  _156
REMARK   69  A    between atoms: _158  and  _160
REMARK   70  A    between atoms: _160  and  _161
REMARK   71  A    between atoms: _163  and  _165
REMARK   72  A    between atoms: _165  and  _166
REMARK   73  A    between atoms: _165  and  _168
REMARK   74  A    between atoms: _171  and  _173
REMARK   75  A    between atoms: _173  and  _174
REMARK   76  A    between atoms: _173  and  _176
REMARK   77  A    between atoms: _179  and  _181
REMARK   78  A    between atoms: _181  and  _182
REMARK   79  A    between atoms: _181  and  _184
REMARK   80  A    between atoms: _184  and  _185
REMARK   81  A    between atoms: _188  and  _190
REMARK   82  A    between atoms: _190  and  _191
REMARK   83  A    between atoms: _190  and  _193
REMARK   84  A    between atoms: _193  and  _194
REMARK   85  A    between atoms: _198  and  _199
REMARK   86  A    between atoms: _204  and  _206
REMARK   87  A    between atoms: _206  and  _207
REMARK   88  A    between atoms: _210  and  _212
REMARK   89  A    between atoms: _212  and  _213
REMARK   90  A    between atoms: _212  and  _215
REMARK   91  A    between atoms: _215  and  _216
REMARK   92  A    between atoms: _221  and  _223
REMARK   93  A    between atoms: _223  and  _224
REMARK   94  A    between atoms: _223  and  _226
REMARK   95  A    between atoms: _226  and  _227
REMARK   96  A    between atoms: _230  and  _232
REMARK   97  A    between atoms: _232  and  _233
REMARK   98  A    between atoms: _232  and  _235
REMARK   99  A    between atoms: _235  and  _236
REMARK  100  A    between atoms: _239  and  _241
REMARK  101  A    between atoms: _241  and  _242
REMARK  102  A    between atoms: _244  and  _246
REMARK  103  A    between atoms: _246  and  _247
REMARK  104  A    between atoms: _246  and  _249
REMARK  105  A    between atoms: _249  and  _250
REMARK  106  A    between atoms: _250  and  _251
REMARK  107  A    between atoms: _251  and  _252
REMARK  108  A    between atoms: _261  and  _263
REMARK  109  A    between atoms: _263  and  _264
REMARK  110  A    between atoms: _263  and  _266
REMARK  111  A    between atoms: _266  and  _267
REMARK  112  A    between atoms: _267  and  _268
REMARK  113  A    between atoms: _268  and  _269
REMARK  114  A    between atoms: _278  and  _280
REMARK  115  A    between atoms: _280  and  _281
REMARK  116  A    between atoms: _280  and  _283
REMARK  117  A    between atoms: _283  and  _284
REMARK  118  A    between atoms: _287  and  _289
REMARK  119  A    between atoms: _289  and  _290
REMARK  120  A    between atoms: _289  and  _292
REMARK  121  A    between atoms: _292  and  _293
REMARK  122  A    between atoms: _296  and  _298
REMARK  123  A    between atoms: _298  and  _299
REMARK  124  A    between atoms: _298  and  _301
REMARK  125  A    between atoms: _301  and  _302
REMARK  126  A    between atoms: _305  and  _307
REMARK  127  A    between atoms: _307  and  _308
REMARK  128  A    between atoms: _307  and  _310
REMARK  129  A    between atoms: _310  and  _311
REMARK  130  A    between atoms: _314  and  _316
REMARK  131  A    between atoms: _316  and  _317
REMARK  132  A    between atoms: _316  and  _319
REMARK  133  A    between atoms: _319  and  _320
REMARK  134  A    between atoms: _323  and  _325
REMARK  135  A    between atoms: _325  and  _326
REMARK  136  A    between atoms: _328  and  _330
REMARK  137  A    between atoms: _330  and  _331
REMARK  138  A    between atoms: _334  and  _336
REMARK  139  A    between atoms: _336  and  _337
REMARK  140  A    between atoms: _336  and  _339
REMARK  141  A    between atoms: _339  and  _340
REMARK  142  A    between atoms: _343  and  _345
REMARK  143  A    between atoms: _345  and  _346
REMARK  144  A    between atoms: _345  and  _348
REMARK  145  A    between atoms: _348  and  _349
REMARK  146  A    between atoms: _352  and  _354
REMARK  147  A    between atoms: _354  and  _355
REMARK  148  A    between atoms: _354  and  _357
REMARK  149  A    between atoms: _357  and  _358
REMARK  150  A    between atoms: _361  and  _363
REMARK  151  A    between atoms: _363  and  _364
REMARK  152  A    between atoms: _363  and  _366
REMARK  153  A    between atoms: _369  and  _371
REMARK  154  A    between atoms: _371  and  _372
REMARK  155  A    between atoms: _371  and  _374
REMARK  156  A    between atoms: _374  and  _375
REMARK  157  A    between atoms: _375  and  _376
REMARK  158  A    between atoms: _379  and  _381
REMARK  159  A    between atoms: _381  and  _382
REMARK  160  A    between atoms: _381  and  _384
REMARK  161  A    between atoms: _384  and  _385
REMARK  162  A    between atoms: _385  and  _386
REMARK  163  A    between atoms: _386  and  _387
REMARK  164  A    between atoms: _387  and  _388
REMARK  165  A    between atoms: _392  and  _394
REMARK  166  A    between atoms: _394  and  _395
REMARK  167  A    between atoms: _394  and  _397
REMARK  168  A    between atoms: _397  and  _398
REMARK  169  A    between atoms: _398  and  _399
REMARK  170  A    between atoms: _401  and  _403
REMARK  171  A    between atoms: _403  and  _404
REMARK  172  A    between atoms: _403  and  _406
REMARK  173  A    between atoms: _406  and  _407
REMARK  174  A    between atoms: _410  and  _412
REMARK  175  A    between atoms: _412  and  _413
REMARK  176  A    between atoms: _412  and  _415
REMARK  177  A    between atoms: _418  and  _420
REMARK  178  A    between atoms: _420  and  _421
REMARK  179  A    between atoms: _423  and  _425
REMARK  180  A    between atoms: _425  and  _426
REMARK  181  A    between atoms: _425  and  _428
REMARK  182  A    between atoms: _428  and  _429
REMARK  183  A    between atoms: _432  and  _434
REMARK  184  A    between atoms: _434  and  _435
REMARK  185  A    between atoms: _437  and  _439
REMARK  186  A    between atoms: _439  and  _440
REMARK  187  A    between atoms: _442  and  _444
REMARK  188  A    between atoms: _444  and  _445
REMARK  189  A    between atoms: _444  and  _447
REMARK  190  A    between atoms: _447  and  _448
REMARK  191  A    between atoms: _454  and  _456
REMARK  192  A    between atoms: _456  and  _457
REMARK  193  A    between atoms: _456  and  _459
REMARK  194  A    between atoms: _462  and  _464
REMARK  195  A    between atoms: _464  and  _465
REMARK  196  A    between atoms: _464  and  _467
REMARK  197  A    between atoms: _470  and  _472
REMARK  198  A    between atoms: _472  and  _473
REMARK  199  A    between atoms: _472  and  _475
REMARK  200  A    between atoms: _475  and  _476
REMARK  201  A    between atoms: _480  and  _481
REMARK  202  A    between atoms: _486  and  _488
REMARK  203  A    between atoms: _488  and  _489
REMARK  204  A    between atoms: _488  and  _491
REMARK  205  A    between atoms: _491  and  _492
REMARK  206  A    between atoms: _496  and  _497
REMARK  207  A    between atoms: _502  and  _504
REMARK  208  A    between atoms: _504  and  _505
REMARK  209  A    between atoms: _508  and  _510
REMARK  210  A    between atoms: _510  and  _511
REMARK  211  A    between atoms: _510  and  _513
REMARK  212  A    between atoms: _513  and  _514
REMARK  213  A    between atoms: _519  and  _521
REMARK  214  A    between atoms: _521  and  _522
REMARK  215  A    between atoms: _521  and  _524
REMARK  216  A    between atoms: _524  and  _525
REMARK  217  A    between atoms: _528  and  _530
REMARK  218  A    between atoms: _530  and  _531
REMARK  219  A    between atoms: _530  and  _533
REMARK  220  A    between atoms: _533  and  _534
REMARK  221  A    between atoms: _537  and  _539
REMARK  222  A    between atoms: _539  and  _540
REMARK  223  A    between atoms: _542  and  _544
REMARK  224  A    between atoms: _544  and  _545
REMARK  225  A    between atoms: _544  and  _547
REMARK  226  A    between atoms: _547  and  _548
REMARK  227  A    between atoms: _548  and  _549
REMARK  228  A    between atoms: _549  and  _550
REMARK                            x       y       z     vdW  Elec       q    Type
REMARK                         _______ _______ _______ _____ _____    ______ ____
ROOT
ATOM      1  O   HOH     1      15.275   7.589  18.970  0.00  0.00    +0.000 OA
ENDROOT
TORSDOF 0
