REMARK  Name = ../refined-set-2016/3rv4/3rv4_pocket.pdb
REMARK  254 active torsions:
REMARK  status: ('A' for Active; 'I' for Inactive)
REMARK    1  A    between atoms: _1  and  _3
REMARK    2  A    between atoms: _3  and  _4
REMARK    3  A    between atoms: _3  and  _6
REMARK    4  A    between atoms: _6  and  _7
REMARK    5  A    between atoms: _7  and  _8
REMARK    6  A    between atoms: _11  and  _13
REMARK    7  A    between atoms: _13  and  _14
REMARK    8  A    between atoms: _13  and  _16
REMARK    9  A    between atoms: _16  and  _17
REMARK   10  A    between atoms: _17  and  _18
REMARK   11  A    between atoms: _18  and  _19
REMARK   12  A    between atoms: _19  and  _20
REMARK   13  A    between atoms: _24  and  _26
REMARK   14  A    between atoms: _26  and  _27
REMARK   15  A    between atoms: _26  and  _29
REMARK   16  A    between atoms: _29  and  _30
REMARK   17  A    between atoms: _33  and  _35
REMARK   18  A    between atoms: _35  and  _36
REMARK   19  A    between atoms: _35  and  _38
REMARK   20  A    between atoms: _42  and  _43
REMARK   21  A    between atoms: _49  and  _50
REMARK   22  A    between atoms: _55  and  _57
REMARK   23  A    between atoms: _57  and  _58
REMARK   24  A    between atoms: _57  and  _60
REMARK   25  A    between atoms: _63  and  _65
REMARK   26  A    between atoms: _65  and  _66
REMARK   27  A    between atoms: _65  and  _68
REMARK   28  A    between atoms: _68  and  _69
REMARK   29  A    between atoms: _72  and  _74
REMARK   30  A    between atoms: _74  and  _75
REMARK   31  A    between atoms: _74  and  _77
REMARK   32  A    between atoms: _77  and  _78
REMARK   33  A    between atoms: _81  and  _83
REMARK   34  A    between atoms: _83  and  _84
REMARK   35  A    between atoms: _83  and  _86
REMARK   36  A    between atoms: _86  and  _87
REMARK   37  A    between atoms: _87  and  _88
REMARK   38  A    between atoms: _88  and  _89
REMARK   39  A    between atoms: _89  and  _90
REMARK   40  A    between atoms: _94  and  _96
REMARK   41  A    between atoms: _96  and  _97
REMARK   42  A    between atoms: _100  and  _102
REMARK   43  A    between atoms: _102  and  _103
REMARK   44  A    between atoms: _102  and  _105
REMARK   45  A    between atoms: _105  and  _106
REMARK   46  A    between atoms: _108  and  _110
REMARK   47  A    between atoms: _110  and  _111
REMARK   48  A    between atoms: _113  and  _115
REMARK   49  A    between atoms: _115  and  _116
REMARK   50  A    between atoms: _118  and  _120
REMARK   51  A    between atoms: _120  and  _121
REMARK   52  A    between atoms: _123  and  _125
REMARK   53  A    between atoms: _125  and  _126
REMARK   54  A    between atoms: _128  and  _130
REMARK   55  A    between atoms: _130  and  _131
REMARK   56  A    between atoms: _133  and  _135
REMARK   57  A    between atoms: _135  and  _136
REMARK   58  A    between atoms: _135  and  _138
REMARK   59  A    between atoms: _138  and  _139
REMARK   60  A    between atoms: _139  and  _140
REMARK   61  A    between atoms: _140  and  _141
REMARK   62  A    between atoms: _150  and  _152
REMARK   63  A    between atoms: _152  and  _153
REMARK   64  A    between atoms: _155  and  _157
REMARK   65  A    between atoms: _157  and  _158
REMARK   66  A    between atoms: _157  and  _160
REMARK   67  A    between atoms: _160  and  _161
REMARK   68  A    between atoms: _161  and  _162
REMARK   69  A    between atoms: _164  and  _166
REMARK   70  A    between atoms: _166  and  _167
REMARK   71  A    between atoms: _166  and  _169
REMARK   72  A    between atoms: _172  and  _174
REMARK   73  A    between atoms: _174  and  _175
REMARK   74  A    between atoms: _174  and  _177
REMARK   75  A    between atoms: _177  and  _178
REMARK   76  A    between atoms: _184  and  _186
REMARK   77  A    between atoms: _186  and  _187
REMARK   78  A    between atoms: _186  and  _189
REMARK   79  A    between atoms: _189  and  _190
REMARK   80  A    between atoms: _195  and  _196
REMARK   81  A    between atoms: _198  and  _200
REMARK   82  A    between atoms: _200  and  _201
REMARK   83  A    between atoms: _200  and  _203
REMARK   84  A    between atoms: _203  and  _204
REMARK   85  A    between atoms: _204  and  _205
REMARK   86  A    between atoms: _207  and  _209
REMARK   87  A    between atoms: _209  and  _210
REMARK   88  A    between atoms: _209  and  _212
REMARK   89  A    between atoms: _212  and  _213
REMARK   90  A    between atoms: _213  and  _214
REMARK   91  A    between atoms: _217  and  _219
REMARK   92  A    between atoms: _219  and  _220
REMARK   93  A    between atoms: _219  and  _222
REMARK   94  A    between atoms: _222  and  _223
REMARK   95  A    between atoms: _223  and  _224
REMARK   96  A    between atoms: _224  and  _225
REMARK   97  A    between atoms: _225  and  _226
REMARK   98  A    between atoms: _230  and  _232
REMARK   99  A    between atoms: _232  and  _233
REMARK  100  A    between atoms: _232  and  _235
REMARK  101  A    between atoms: _235  and  _236
REMARK  102  A    between atoms: _241  and  _242
REMARK  103  A    between atoms: _244  and  _246
REMARK  104  A    between atoms: _246  and  _247
REMARK  105  A    between atoms: _246  and  _249
REMARK  106  A    between atoms: _249  and  _250
REMARK  107  A    between atoms: _253  and  _255
REMARK  108  A    between atoms: _255  and  _256
REMARK  109  A    between atoms: _255  and  _258
REMARK  110  A    between atoms: _258  and  _259
REMARK  111  A    between atoms: _259  and  _260
REMARK  112  A    between atoms: _263  and  _265
REMARK  113  A    between atoms: _265  and  _266
REMARK  114  A    between atoms: _265  and  _268
REMARK  115  A    between atoms: _268  and  _269
REMARK  116  A    between atoms: _275  and  _276
REMARK  117  A    between atoms: _281  and  _283
REMARK  118  A    between atoms: _283  and  _284
REMARK  119  A    between atoms: _283  and  _286
REMARK  120  A    between atoms: _286  and  _287
REMARK  121  A    between atoms: _287  and  _288
REMARK  122  A    between atoms: _288  and  _289
REMARK  123  A    between atoms: _298  and  _300
REMARK  124  A    between atoms: _300  and  _301
REMARK  125  A    between atoms: _300  and  _303
REMARK  126  A    between atoms: _303  and  _304
REMARK  127  A    between atoms: _309  and  _311
REMARK  128  A    between atoms: _311  and  _312
REMARK  129  A    between atoms: _311  and  _314
REMARK  130  A    between atoms: _317  and  _319
REMARK  131  A    between atoms: _319  and  _320
REMARK  132  A    between atoms: _319  and  _322
REMARK  133  A    between atoms: _322  and  _323
REMARK  134  A    between atoms: _323  and  _324
REMARK  135  A    between atoms: _327  and  _329
REMARK  136  A    between atoms: _329  and  _330
REMARK  137  A    between atoms: _329  and  _332
REMARK  138  A    between atoms: _334  and  _336
REMARK  139  A    between atoms: _336  and  _337
REMARK  140  A    between atoms: _336  and  _339
REMARK  141  A    between atoms: _339  and  _340
REMARK  142  A    between atoms: _342  and  _344
REMARK  143  A    between atoms: _344  and  _345
REMARK  144  A    between atoms: _344  and  _347
REMARK  145  A    between atoms: _347  and  _348
REMARK  146  A    between atoms: _348  and  _349
REMARK  147  A    between atoms: _351  and  _353
REMARK  148  A    between atoms: _353  and  _354
REMARK  149  A    between atoms: _353  and  _356
REMARK  150  A    between atoms: _356  and  _357
REMARK  151  A    between atoms: _357  and  _358
REMARK  152  A    between atoms: _363  and  _365
REMARK  153  A    between atoms: _365  and  _366
REMARK  154  A    between atoms: _365  and  _368
REMARK  155  A    between atoms: _368  and  _369
REMARK  156  A    between atoms: _369  and  _370
REMARK  157  A    between atoms: _370  and  _371
REMARK  158  A    between atoms: _380  and  _382
REMARK  159  A    between atoms: _382  and  _383
REMARK  160  A    between atoms: _382  and  _385
REMARK  161  A    between atoms: _385  and  _386
REMARK  162  A    between atoms: _386  and  _387
REMARK  163  A    between atoms: _387  and  _388
REMARK  164  A    between atoms: _397  and  _399
REMARK  165  A    between atoms: _399  and  _400
REMARK  166  A    between atoms: _399  and  _402
REMARK  167  A    between atoms: _402  and  _403
REMARK  168  A    between atoms: _408  and  _410
REMARK  169  A    between atoms: _410  and  _411
REMARK  170  A    between atoms: _410  and  _413
REMARK  171  A    between atoms: _413  and  _414
REMARK  172  A    between atoms: _414  and  _415
REMARK  173  A    between atoms: _420  and  _422
REMARK  174  A    between atoms: _422  and  _423
REMARK  175  A    between atoms: _422  and  _425
REMARK  176  A    between atoms: _425  and  _426
REMARK  177  A    between atoms: _426  and  _427
REMARK  178  A    between atoms: _427  and  _428
REMARK  179  A    between atoms: _428  and  _429
REMARK  180  A    between atoms: _433  and  _435
REMARK  181  A    between atoms: _435  and  _436
REMARK  182  A    between atoms: _435  and  _438
REMARK  183  A    between atoms: _438  and  _439
REMARK  184  A    between atoms: _439  and  _440
REMARK  185  A    between atoms: _443  and  _445
REMARK  186  A    between atoms: _445  and  _446
REMARK  187  A    between atoms: _445  and  _448
REMARK  188  A    between atoms: _448  and  _449
REMARK  189  A    between atoms: _455  and  _457
REMARK  190  A    between atoms: _457  and  _458
REMARK  191  A    between atoms: _457  and  _460
REMARK  192  A    between atoms: _460  and  _461
REMARK  193  A    between atoms: _464  and  _466
REMARK  194  A    between atoms: _466  and  _467
REMARK  195  A    between atoms: _466  and  _469
REMARK  196  A    between atoms: _469  and  _470
REMARK  197  A    between atoms: _470  and  _471
REMARK  198  A    between atoms: _474  and  _476
REMARK  199  A    between atoms: _476  and  _477
REMARK  200  A    between atoms: _476  and  _479
REMARK  201  A    between atoms: _479  and  _480
REMARK  202  A    between atoms: _485  and  _486
REMARK  203  A    between atoms: _488  and  _490
REMARK  204  A    between atoms: _490  and  _491
REMARK  205  A    between atoms: _490  and  _493
REMARK  206  A    between atoms: _493  and  _494
REMARK  207  A    between atoms: _500  and  _502
REMARK  208  A    between atoms: _502  and  _503
REMARK  209  A    between atoms: _502  and  _505
REMARK  210  A    between atoms: _505  and  _506
REMARK  211  A    between atoms: _509  and  _511
REMARK  212  A    between atoms: _511  and  _512
REMARK  213  A    between atoms: _511  and  _514
REMARK  214  A    between atoms: _514  and  _515
REMARK  215  A    between atoms: _515  and  _516
REMARK  216  A    between atoms: _516  and  _518
REMARK  217  A    between atoms: _518  and  MG_609
REMARK  218  A    between atoms: _519  and  _521
REMARK  219  A    between atoms: _521  and  _522
REMARK  220  A    between atoms: _521  and  _524
REMARK  221  A    between atoms: _524  and  _525
REMARK  222  A    between atoms: _525  and  _526
REMARK  223  A    between atoms: _528  and  _530
REMARK  224  A    between atoms: _530  and  _531
REMARK  225  A    between atoms: _530  and  _533
REMARK  226  A    between atoms: _533  and  _534
REMARK  227  A    between atoms: _539  and  _541
REMARK  228  A    between atoms: _541  and  _542
REMARK  229  A    between atoms: _541  and  _544
REMARK  230  A    between atoms: _544  and  _545
REMARK  231  A    between atoms: _545  and  _546
REMARK  232  A    between atoms: _546  and  _547
REMARK  233  A    between atoms: _556  and  _558
REMARK  234  A    between atoms: _558  and  _559
REMARK  235  A    between atoms: _558  and  _561
REMARK  236  A    between atoms: _561  and  _562
REMARK  237  A    between atoms: _562  and  _563
REMARK  238  A    between atoms: _568  and  _570
REMARK  239  A    between atoms: _570  and  _571
REMARK  240  A    between atoms: _570  and  _573
REMARK  241  A    between atoms: _573  and  _574
REMARK  242  A    between atoms: _579  and  _581
REMARK  243  A    between atoms: _581  and  _582
REMARK  244  A    between atoms: _581  and  _584
REMARK  245  A    between atoms: _584  and  _585
REMARK  246  A    between atoms: _588  and  _590
REMARK  247  A    between atoms: _590  and  _591
REMARK  248  A    between atoms: _590  and  _593
REMARK  249  A    between atoms: _593  and  _594
REMARK  250  A    between atoms: _599  and  _601
REMARK  251  A    between atoms: _601  and  _602
REMARK  252  A    between atoms: _601  and  _604
REMARK  253  A    between atoms: _604  and  _605
REMARK  254  A    between atoms: _605  and  _606
REMARK                            x       y       z     vdW  Elec       q    Type
REMARK                         _______ _______ _______ _____ _____    ______ ____
ROOT
ATOM      1  CA  GLU A   1     -16.958 -18.330  25.190  0.00  0.00    +0.134 C 
ENDROOT
BRANCH   1   2
ATOM      2  N   GLU A   1     -15.889 -19.059  24.519  0.00  0.00    -0.239 NA
ATOM      3  H   GLU A   1     -16.115 -19.946  24.025  0.00  0.00    +0.142 HD
ENDBRANCH   1   2
BRANCH   1   4
ATOM      4  C   GLU A   1     -17.574 -19.148  26.349  0.00  0.00    +0.224 C 
ATOM      5  O   GLU A   1     -18.754 -19.012  26.683  0.00  0.00    -0.287 OA
ENDBRANCH   1   4
BRANCH   1   6
ATOM      6  CB  GLU A   1     -18.008 -17.865  24.184  0.00  0.00    +0.037 C 
BRANCH   6   7
ATOM      7  CG  GLU A   1     -17.427 -16.926  23.103  0.00  0.00    +0.116 C 
BRANCH   7   8
ATOM      8  CD  GLU A   1     -18.446 -16.537  22.072  0.00  0.00    +0.365 C 
ATOM      9  OE2 GLU A   1     -18.861 -15.346  22.080  0.00  0.00    -0.246 OA
ATOM     10  OE1 GLU A   1     -18.822 -17.413  21.253  0.00  0.00    -0.246 OA
ENDBRANCH   7   8
ENDBRANCH   6   7
ENDBRANCH   1   6
TORSDOF 5
REMARK  Name = ../refined-set-2016/3rv4/3rv4_pocket.pdb
REMARK  254 active torsions:
REMARK  status: ('A' for Active; 'I' for Inactive)
REMARK    1  A    between atoms: _1  and  _3
REMARK    2  A    between atoms: _3  and  _4
REMARK    3  A    between atoms: _3  and  _6
REMARK    4  A    between atoms: _6  and  _7
REMARK    5  A    between atoms: _7  and  _8
REMARK    6  A    between atoms: _11  and  _13
REMARK    7  A    between atoms: _13  and  _14
REMARK    8  A    between atoms: _13  and  _16
REMARK    9  A    between atoms: _16  and  _17
REMARK   10  A    between atoms: _17  and  _18
REMARK   11  A    between atoms: _18  and  _19
REMARK   12  A    between atoms: _19  and  _20
REMARK   13  A    between atoms: _24  and  _26
REMARK   14  A    between atoms: _26  and  _27
REMARK   15  A    between atoms: _26  and  _29
REMARK   16  A    between atoms: _29  and  _30
REMARK   17  A    between atoms: _33  and  _35
REMARK   18  A    between atoms: _35  and  _36
REMARK   19  A    between atoms: _35  and  _38
REMARK   20  A    between atoms: _42  and  _43
REMARK   21  A    between atoms: _49  and  _50
REMARK   22  A    between atoms: _55  and  _57
REMARK   23  A    between atoms: _57  and  _58
REMARK   24  A    between atoms: _57  and  _60
REMARK   25  A    between atoms: _63  and  _65
REMARK   26  A    between atoms: _65  and  _66
REMARK   27  A    between atoms: _65  and  _68
REMARK   28  A    between atoms: _68  and  _69
REMARK   29  A    between atoms: _72  and  _74
REMARK   30  A    between atoms: _74  and  _75
REMARK   31  A    between atoms: _74  and  _77
REMARK   32  A    between atoms: _77  and  _78
REMARK   33  A    between atoms: _81  and  _83
REMARK   34  A    between atoms: _83  and  _84
REMARK   35  A    between atoms: _83  and  _86
REMARK   36  A    between atoms: _86  and  _87
REMARK   37  A    between atoms: _87  and  _88
REMARK   38  A    between atoms: _88  and  _89
REMARK   39  A    between atoms: _89  and  _90
REMARK   40  A    between atoms: _94  and  _96
REMARK   41  A    between atoms: _96  and  _97
REMARK   42  A    between atoms: _100  and  _102
REMARK   43  A    between atoms: _102  and  _103
REMARK   44  A    between atoms: _102  and  _105
REMARK   45  A    between atoms: _105  and  _106
REMARK   46  A    between atoms: _108  and  _110
REMARK   47  A    between atoms: _110  and  _111
REMARK   48  A    between atoms: _113  and  _115
REMARK   49  A    between atoms: _115  and  _116
REMARK   50  A    between atoms: _118  and  _120
REMARK   51  A    between atoms: _120  and  _121
REMARK   52  A    between atoms: _123  and  _125
REMARK   53  A    between atoms: _125  and  _126
REMARK   54  A    between atoms: _128  and  _130
REMARK   55  A    between atoms: _130  and  _131
REMARK   56  A    between atoms: _133  and  _135
REMARK   57  A    between atoms: _135  and  _136
REMARK   58  A    between atoms: _135  and  _138
REMARK   59  A    between atoms: _138  and  _139
REMARK   60  A    between atoms: _139  and  _140
REMARK   61  A    between atoms: _140  and  _141
REMARK   62  A    between atoms: _150  and  _152
REMARK   63  A    between atoms: _152  and  _153
REMARK   64  A    between atoms: _155  and  _157
REMARK   65  A    between atoms: _157  and  _158
REMARK   66  A    between atoms: _157  and  _160
REMARK   67  A    between atoms: _160  and  _161
REMARK   68  A    between atoms: _161  and  _162
REMARK   69  A    between atoms: _164  and  _166
REMARK   70  A    between atoms: _166  and  _167
REMARK   71  A    between atoms: _166  and  _169
REMARK   72  A    between atoms: _172  and  _174
REMARK   73  A    between atoms: _174  and  _175
REMARK   74  A    between atoms: _174  and  _177
REMARK   75  A    between atoms: _177  and  _178
REMARK   76  A    between atoms: _184  and  _186
REMARK   77  A    between atoms: _186  and  _187
REMARK   78  A    between atoms: _186  and  _189
REMARK   79  A    between atoms: _189  and  _190
REMARK   80  A    between atoms: _195  and  _196
REMARK   81  A    between atoms: _198  and  _200
REMARK   82  A    between atoms: _200  and  _201
REMARK   83  A    between atoms: _200  and  _203
REMARK   84  A    between atoms: _203  and  _204
REMARK   85  A    between atoms: _204  and  _205
REMARK   86  A    between atoms: _207  and  _209
REMARK   87  A    between atoms: _209  and  _210
REMARK   88  A    between atoms: _209  and  _212
REMARK   89  A    between atoms: _212  and  _213
REMARK   90  A    between atoms: _213  and  _214
REMARK   91  A    between atoms: _217  and  _219
REMARK   92  A    between atoms: _219  and  _220
REMARK   93  A    between atoms: _219  and  _222
REMARK   94  A    between atoms: _222  and  _223
REMARK   95  A    between atoms: _223  and  _224
REMARK   96  A    between atoms: _224  and  _225
REMARK   97  A    between atoms: _225  and  _226
REMARK   98  A    between atoms: _230  and  _232
REMARK   99  A    between atoms: _232  and  _233
REMARK  100  A    between atoms: _232  and  _235
REMARK  101  A    between atoms: _235  and  _236
REMARK  102  A    between atoms: _241  and  _242
REMARK  103  A    between atoms: _244  and  _246
REMARK  104  A    between atoms: _246  and  _247
REMARK  105  A    between atoms: _246  and  _249
REMARK  106  A    between atoms: _249  and  _250
REMARK  107  A    between atoms: _253  and  _255
REMARK  108  A    between atoms: _255  and  _256
REMARK  109  A    between atoms: _255  and  _258
REMARK  110  A    between atoms: _258  and  _259
REMARK  111  A    between atoms: _259  and  _260
REMARK  112  A    between atoms: _263  and  _265
REMARK  113  A    between atoms: _265  and  _266
REMARK  114  A    between atoms: _265  and  _268
REMARK  115  A    between atoms: _268  and  _269
REMARK  116  A    between atoms: _275  and  _276
REMARK  117  A    between atoms: _281  and  _283
REMARK  118  A    between atoms: _283  and  _284
REMARK  119  A    between atoms: _283  and  _286
REMARK  120  A    between atoms: _286  and  _287
REMARK  121  A    between atoms: _287  and  _288
REMARK  122  A    between atoms: _288  and  _289
REMARK  123  A    between atoms: _298  and  _300
REMARK  124  A    between atoms: _300  and  _301
REMARK  125  A    between atoms: _300  and  _303
REMARK  126  A    between atoms: _303  and  _304
REMARK  127  A    between atoms: _309  and  _311
REMARK  128  A    between atoms: _311  and  _312
REMARK  129  A    between atoms: _311  and  _314
REMARK  130  A    between atoms: _317  and  _319
REMARK  131  A    between atoms: _319  and  _320
REMARK  132  A    between atoms: _319  and  _322
REMARK  133  A    between atoms: _322  and  _323
REMARK  134  A    between atoms: _323  and  _324
REMARK  135  A    between atoms: _327  and  _329
REMARK  136  A    between atoms: _329  and  _330
REMARK  137  A    between atoms: _329  and  _332
REMARK  138  A    between atoms: _334  and  _336
REMARK  139  A    between atoms: _336  and  _337
REMARK  140  A    between atoms: _336  and  _339
REMARK  141  A    between atoms: _339  and  _340
REMARK  142  A    between atoms: _342  and  _344
REMARK  143  A    between atoms: _344  and  _345
REMARK  144  A    between atoms: _344  and  _347
REMARK  145  A    between atoms: _347  and  _348
REMARK  146  A    between atoms: _348  and  _349
REMARK  147  A    between atoms: _351  and  _353
REMARK  148  A    between atoms: _353  and  _354
REMARK  149  A    between atoms: _353  and  _356
REMARK  150  A    between atoms: _356  and  _357
REMARK  151  A    between atoms: _357  and  _358
REMARK  152  A    between atoms: _363  and  _365
REMARK  153  A    between atoms: _365  and  _366
REMARK  154  A    between atoms: _365  and  _368
REMARK  155  A    between atoms: _368  and  _369
REMARK  156  A    between atoms: _369  and  _370
REMARK  157  A    between atoms: _370  and  _371
REMARK  158  A    between atoms: _380  and  _382
REMARK  159  A    between atoms: _382  and  _383
REMARK  160  A    between atoms: _382  and  _385
REMARK  161  A    between atoms: _385  and  _386
REMARK  162  A    between atoms: _386  and  _387
REMARK  163  A    between atoms: _387  and  _388
REMARK  164  A    between atoms: _397  and  _399
REMARK  165  A    between atoms: _399  and  _400
REMARK  166  A    between atoms: _399  and  _402
REMARK  167  A    between atoms: _402  and  _403
REMARK  168  A    between atoms: _408  and  _410
REMARK  169  A    between atoms: _410  and  _411
REMARK  170  A    between atoms: _410  and  _413
REMARK  171  A    between atoms: _413  and  _414
REMARK  172  A    between atoms: _414  and  _415
REMARK  173  A    between atoms: _420  and  _422
REMARK  174  A    between atoms: _422  and  _423
REMARK  175  A    between atoms: _422  and  _425
REMARK  176  A    between atoms: _425  and  _426
REMARK  177  A    between atoms: _426  and  _427
REMARK  178  A    between atoms: _427  and  _428
REMARK  179  A    between atoms: _428  and  _429
REMARK  180  A    between atoms: _433  and  _435
REMARK  181  A    between atoms: _435  and  _436
REMARK  182  A    between atoms: _435  and  _438
REMARK  183  A    between atoms: _438  and  _439
REMARK  184  A    between atoms: _439  and  _440
REMARK  185  A    between atoms: _443  and  _445
REMARK  186  A    between atoms: _445  and  _446
REMARK  187  A    between atoms: _445  and  _448
REMARK  188  A    between atoms: _448  and  _449
REMARK  189  A    between atoms: _455  and  _457
REMARK  190  A    between atoms: _457  and  _458
REMARK  191  A    between atoms: _457  and  _460
REMARK  192  A    between atoms: _460  and  _461
REMARK  193  A    between atoms: _464  and  _466
REMARK  194  A    between atoms: _466  and  _467
REMARK  195  A    between atoms: _466  and  _469
REMARK  196  A    between atoms: _469  and  _470
REMARK  197  A    between atoms: _470  and  _471
REMARK  198  A    between atoms: _474  and  _476
REMARK  199  A    between atoms: _476  and  _477
REMARK  200  A    between atoms: _476  and  _479
REMARK  201  A    between atoms: _479  and  _480
REMARK  202  A    between atoms: _485  and  _486
REMARK  203  A    between atoms: _488  and  _490
REMARK  204  A    between atoms: _490  and  _491
REMARK  205  A    between atoms: _490  and  _493
REMARK  206  A    between atoms: _493  and  _494
REMARK  207  A    between atoms: _500  and  _502
REMARK  208  A    between atoms: _502  and  _503
REMARK  209  A    between atoms: _502  and  _505
REMARK  210  A    between atoms: _505  and  _506
REMARK  211  A    between atoms: _509  and  _511
REMARK  212  A    between atoms: _511  and  _512
REMARK  213  A    between atoms: _511  and  _514
REMARK  214  A    between atoms: _514  and  _515
REMARK  215  A    between atoms: _515  and  _516
REMARK  216  A    between atoms: _516  and  _518
REMARK  217  A    between atoms: _518  and  MG_609
REMARK  218  A    between atoms: _519  and  _521
REMARK  219  A    between atoms: _521  and  _522
REMARK  220  A    between atoms: _521  and  _524
REMARK  221  A    between atoms: _524  and  _525
REMARK  222  A    between atoms: _525  and  _526
REMARK  223  A    between atoms: _528  and  _530
REMARK  224  A    between atoms: _530  and  _531
REMARK  225  A    between atoms: _530  and  _533
REMARK  226  A    between atoms: _533  and  _534
REMARK  227  A    between atoms: _539  and  _541
REMARK  228  A    between atoms: _541  and  _542
REMARK  229  A    between atoms: _541  and  _544
REMARK  230  A    between atoms: _544  and  _545
REMARK  231  A    between atoms: _545  and  _546
REMARK  232  A    between atoms: _546  and  _547
REMARK  233  A    between atoms: _556  and  _558
REMARK  234  A    between atoms: _558  and  _559
REMARK  235  A    between atoms: _558  and  _561
REMARK  236  A    between atoms: _561  and  _562
REMARK  237  A    between atoms: _562  and  _563
REMARK  238  A    between atoms: _568  and  _570
REMARK  239  A    between atoms: _570  and  _571
REMARK  240  A    between atoms: _570  and  _573
REMARK  241  A    between atoms: _573  and  _574
REMARK  242  A    between atoms: _579  and  _581
REMARK  243  A    between atoms: _581  and  _582
REMARK  244  A    between atoms: _581  and  _584
REMARK  245  A    between atoms: _584  and  _585
REMARK  246  A    between atoms: _588  and  _590
REMARK  247  A    between atoms: _590  and  _591
REMARK  248  A    between atoms: _590  and  _593
REMARK  249  A    between atoms: _593  and  _594
REMARK  250  A    between atoms: _599  and  _601
REMARK  251  A    between atoms: _601  and  _602
REMARK  252  A    between atoms: _601  and  _604
REMARK  253  A    between atoms: _604  and  _605
REMARK  254  A    between atoms: _605  and  _606
REMARK                            x       y       z     vdW  Elec       q    Type
REMARK                         _______ _______ _______ _____ _____    ______ ____
ROOT
ATOM      1  CG  LYS A   1     -27.374 -14.683  22.853  0.00  0.00    -0.000 C 
ENDROOT
BRANCH   1   2
ATOM      2  CB  LYS A   1     -28.566 -14.028  23.543  0.00  0.00    +0.025 C 
BRANCH   2   3
ATOM      3  CA  LYS A   1     -28.131 -13.284  24.809  0.00  0.00    +0.133 C 
BRANCH   3   4
ATOM      4  N   LYS A   1     -27.711 -14.232  25.839  0.00  0.00    -0.239 NA
ATOM      5  H   LYS A   1     -27.903 -15.245  25.703  0.00  0.00    +0.142 HD
ENDBRANCH   3   4
BRANCH   3   6
ATOM      6  C   LYS A   1     -29.195 -12.333  25.320  0.00  0.00    +0.224 C 
ATOM      7  O   LYS A   1     -29.220 -11.149  24.949  0.00  0.00    -0.287 OA
ENDBRANCH   3   6
ENDBRANCH   2   3
ENDBRANCH   1   2
BRANCH   1   8
ATOM      8  CD  LYS A   1     -27.738 -15.582  21.690  0.00  0.00    -0.024 C 
BRANCH   8   9
ATOM      9  CE  LYS A   1     -28.040 -14.773  20.450  0.00  0.00    -0.086 C 
BRANCH   9  10
ATOM     10  NZ  LYS A   1     -28.036 -15.665  19.268  0.00  0.00    +0.380 N 
ATOM     11  HZ1 LYS A   1     -28.761 -16.401  19.388  0.00  0.00    -0.089 HD
ATOM     12  HZ2 LYS A   1     -27.101 -16.110  19.174  0.00  0.00    -0.089 HD
ATOM     13  HZ3 LYS A   1     -28.244 -15.108  18.414  0.00  0.00    -0.089 HD
ENDBRANCH   9  10
ENDBRANCH   8   9
ENDBRANCH   1   8
TORSDOF 7
REMARK  Name = ../refined-set-2016/3rv4/3rv4_pocket.pdb
REMARK  254 active torsions:
REMARK  status: ('A' for Active; 'I' for Inactive)
REMARK    1  A    between atoms: _1  and  _3
REMARK    2  A    between atoms: _3  and  _4
REMARK    3  A    between atoms: _3  and  _6
REMARK    4  A    between atoms: _6  and  _7
REMARK    5  A    between atoms: _7  and  _8
REMARK    6  A    between atoms: _11  and  _13
REMARK    7  A    between atoms: _13  and  _14
REMARK    8  A    between atoms: _13  and  _16
REMARK    9  A    between atoms: _16  and  _17
REMARK   10  A    between atoms: _17  and  _18
REMARK   11  A    between atoms: _18  and  _19
REMARK   12  A    between atoms: _19  and  _20
REMARK   13  A    between atoms: _24  and  _26
REMARK   14  A    between atoms: _26  and  _27
REMARK   15  A    between atoms: _26  and  _29
REMARK   16  A    between atoms: _29  and  _30
REMARK   17  A    between atoms: _33  and  _35
REMARK   18  A    between atoms: _35  and  _36
REMARK   19  A    between atoms: _35  and  _38
REMARK   20  A    between atoms: _42  and  _43
REMARK   21  A    between atoms: _49  and  _50
REMARK   22  A    between atoms: _55  and  _57
REMARK   23  A    between atoms: _57  and  _58
REMARK   24  A    between atoms: _57  and  _60
REMARK   25  A    between atoms: _63  and  _65
REMARK   26  A    between atoms: _65  and  _66
REMARK   27  A    between atoms: _65  and  _68
REMARK   28  A    between atoms: _68  and  _69
REMARK   29  A    between atoms: _72  and  _74
REMARK   30  A    between atoms: _74  and  _75
REMARK   31  A    between atoms: _74  and  _77
REMARK   32  A    between atoms: _77  and  _78
REMARK   33  A    between atoms: _81  and  _83
REMARK   34  A    between atoms: _83  and  _84
REMARK   35  A    between atoms: _83  and  _86
REMARK   36  A    between atoms: _86  and  _87
REMARK   37  A    between atoms: _87  and  _88
REMARK   38  A    between atoms: _88  and  _89
REMARK   39  A    between atoms: _89  and  _90
REMARK   40  A    between atoms: _94  and  _96
REMARK   41  A    between atoms: _96  and  _97
REMARK   42  A    between atoms: _100  and  _102
REMARK   43  A    between atoms: _102  and  _103
REMARK   44  A    between atoms: _102  and  _105
REMARK   45  A    between atoms: _105  and  _106
REMARK   46  A    between atoms: _108  and  _110
REMARK   47  A    between atoms: _110  and  _111
REMARK   48  A    between atoms: _113  and  _115
REMARK   49  A    between atoms: _115  and  _116
REMARK   50  A    between atoms: _118  and  _120
REMARK   51  A    between atoms: _120  and  _121
REMARK   52  A    between atoms: _123  and  _125
REMARK   53  A    between atoms: _125  and  _126
REMARK   54  A    between atoms: _128  and  _130
REMARK   55  A    between atoms: _130  and  _131
REMARK   56  A    between atoms: _133  and  _135
REMARK   57  A    between atoms: _135  and  _136
REMARK   58  A    between atoms: _135  and  _138
REMARK   59  A    between atoms: _138  and  _139
REMARK   60  A    between atoms: _139  and  _140
REMARK   61  A    between atoms: _140  and  _141
REMARK   62  A    between atoms: _150  and  _152
REMARK   63  A    between atoms: _152  and  _153
REMARK   64  A    between atoms: _155  and  _157
REMARK   65  A    between atoms: _157  and  _158
REMARK   66  A    between atoms: _157  and  _160
REMARK   67  A    between atoms: _160  and  _161
REMARK   68  A    between atoms: _161  and  _162
REMARK   69  A    between atoms: _164  and  _166
REMARK   70  A    between atoms: _166  and  _167
REMARK   71  A    between atoms: _166  and  _169
REMARK   72  A    between atoms: _172  and  _174
REMARK   73  A    between atoms: _174  and  _175
REMARK   74  A    between atoms: _174  and  _177
REMARK   75  A    between atoms: _177  and  _178
REMARK   76  A    between atoms: _184  and  _186
REMARK   77  A    between atoms: _186  and  _187
REMARK   78  A    between atoms: _186  and  _189
REMARK   79  A    between atoms: _189  and  _190
REMARK   80  A    between atoms: _195  and  _196
REMARK   81  A    between atoms: _198  and  _200
REMARK   82  A    between atoms: _200  and  _201
REMARK   83  A    between atoms: _200  and  _203
REMARK   84  A    between atoms: _203  and  _204
REMARK   85  A    between atoms: _204  and  _205
REMARK   86  A    between atoms: _207  and  _209
REMARK   87  A    between atoms: _209  and  _210
REMARK   88  A    between atoms: _209  and  _212
REMARK   89  A    between atoms: _212  and  _213
REMARK   90  A    between atoms: _213  and  _214
REMARK   91  A    between atoms: _217  and  _219
REMARK   92  A    between atoms: _219  and  _220
REMARK   93  A    between atoms: _219  and  _222
REMARK   94  A    between atoms: _222  and  _223
REMARK   95  A    between atoms: _223  and  _224
REMARK   96  A    between atoms: _224  and  _225
REMARK   97  A    between atoms: _225  and  _226
REMARK   98  A    between atoms: _230  and  _232
REMARK   99  A    between atoms: _232  and  _233
REMARK  100  A    between atoms: _232  and  _235
REMARK  101  A    between atoms: _235  and  _236
REMARK  102  A    between atoms: _241  and  _242
REMARK  103  A    between atoms: _244  and  _246
REMARK  104  A    between atoms: _246  and  _247
REMARK  105  A    between atoms: _246  and  _249
REMARK  106  A    between atoms: _249  and  _250
REMARK  107  A    between atoms: _253  and  _255
REMARK  108  A    between atoms: _255  and  _256
REMARK  109  A    between atoms: _255  and  _258
REMARK  110  A    between atoms: _258  and  _259
REMARK  111  A    between atoms: _259  and  _260
REMARK  112  A    between atoms: _263  and  _265
REMARK  113  A    between atoms: _265  and  _266
REMARK  114  A    between atoms: _265  and  _268
REMARK  115  A    between atoms: _268  and  _269
REMARK  116  A    between atoms: _275  and  _276
REMARK  117  A    between atoms: _281  and  _283
REMARK  118  A    between atoms: _283  and  _284
REMARK  119  A    between atoms: _283  and  _286
REMARK  120  A    between atoms: _286  and  _287
REMARK  121  A    between atoms: _287  and  _288
REMARK  122  A    between atoms: _288  and  _289
REMARK  123  A    between atoms: _298  and  _300
REMARK  124  A    between atoms: _300  and  _301
REMARK  125  A    between atoms: _300  and  _303
REMARK  126  A    between atoms: _303  and  _304
REMARK  127  A    between atoms: _309  and  _311
REMARK  128  A    between atoms: _311  and  _312
REMARK  129  A    between atoms: _311  and  _314
REMARK  130  A    between atoms: _317  and  _319
REMARK  131  A    between atoms: _319  and  _320
REMARK  132  A    between atoms: _319  and  _322
REMARK  133  A    between atoms: _322  and  _323
REMARK  134  A    between atoms: _323  and  _324
REMARK  135  A    between atoms: _327  and  _329
REMARK  136  A    between atoms: _329  and  _330
REMARK  137  A    between atoms: _329  and  _332
REMARK  138  A    between atoms: _334  and  _336
REMARK  139  A    between atoms: _336  and  _337
REMARK  140  A    between atoms: _336  and  _339
REMARK  141  A    between atoms: _339  and  _340
REMARK  142  A    between atoms: _342  and  _344
REMARK  143  A    between atoms: _344  and  _345
REMARK  144  A    between atoms: _344  and  _347
REMARK  145  A    between atoms: _347  and  _348
REMARK  146  A    between atoms: _348  and  _349
REMARK  147  A    between atoms: _351  and  _353
REMARK  148  A    between atoms: _353  and  _354
REMARK  149  A    between atoms: _353  and  _356
REMARK  150  A    between atoms: _356  and  _357
REMARK  151  A    between atoms: _357  and  _358
REMARK  152  A    between atoms: _363  and  _365
REMARK  153  A    between atoms: _365  and  _366
REMARK  154  A    between atoms: _365  and  _368
REMARK  155  A    between atoms: _368  and  _369
REMARK  156  A    between atoms: _369  and  _370
REMARK  157  A    between atoms: _370  and  _371
REMARK  158  A    between atoms: _380  and  _382
REMARK  159  A    between atoms: _382  and  _383
REMARK  160  A    between atoms: _382  and  _385
REMARK  161  A    between atoms: _385  and  _386
REMARK  162  A    between atoms: _386  and  _387
REMARK  163  A    between atoms: _387  and  _388
REMARK  164  A    between atoms: _397  and  _399
REMARK  165  A    between atoms: _399  and  _400
REMARK  166  A    between atoms: _399  and  _402
REMARK  167  A    between atoms: _402  and  _403
REMARK  168  A    between atoms: _408  and  _410
REMARK  169  A    between atoms: _410  and  _411
REMARK  170  A    between atoms: _410  and  _413
REMARK  171  A    between atoms: _413  and  _414
REMARK  172  A    between atoms: _414  and  _415
REMARK  173  A    between atoms: _420  and  _422
REMARK  174  A    between atoms: _422  and  _423
REMARK  175  A    between atoms: _422  and  _425
REMARK  176  A    between atoms: _425  and  _426
REMARK  177  A    between atoms: _426  and  _427
REMARK  178  A    between atoms: _427  and  _428
REMARK  179  A    between atoms: _428  and  _429
REMARK  180  A    between atoms: _433  and  _435
REMARK  181  A    between atoms: _435  and  _436
REMARK  182  A    between atoms: _435  and  _438
REMARK  183  A    between atoms: _438  and  _439
REMARK  184  A    between atoms: _439  and  _440
REMARK  185  A    between atoms: _443  and  _445
REMARK  186  A    between atoms: _445  and  _446
REMARK  187  A    between atoms: _445  and  _448
REMARK  188  A    between atoms: _448  and  _449
REMARK  189  A    between atoms: _455  and  _457
REMARK  190  A    between atoms: _457  and  _458
REMARK  191  A    between atoms: _457  and  _460
REMARK  192  A    between atoms: _460  and  _461
REMARK  193  A    between atoms: _464  and  _466
REMARK  194  A    between atoms: _466  and  _467
REMARK  195  A    between atoms: _466  and  _469
REMARK  196  A    between atoms: _469  and  _470
REMARK  197  A    between atoms: _470  and  _471
REMARK  198  A    between atoms: _474  and  _476
REMARK  199  A    between atoms: _476  and  _477
REMARK  200  A    between atoms: _476  and  _479
REMARK  201  A    between atoms: _479  and  _480
REMARK  202  A    between atoms: _485  and  _486
REMARK  203  A    between atoms: _488  and  _490
REMARK  204  A    between atoms: _490  and  _491
REMARK  205  A    between atoms: _490  and  _493
REMARK  206  A    between atoms: _493  and  _494
REMARK  207  A    between atoms: _500  and  _502
REMARK  208  A    between atoms: _502  and  _503
REMARK  209  A    between atoms: _502  and  _505
REMARK  210  A    between atoms: _505  and  _506
REMARK  211  A    between atoms: _509  and  _511
REMARK  212  A    between atoms: _511  and  _512
REMARK  213  A    between atoms: _511  and  _514
REMARK  214  A    between atoms: _514  and  _515
REMARK  215  A    between atoms: _515  and  _516
REMARK  216  A    between atoms: _516  and  _518
REMARK  217  A    between atoms: _518  and  MG_609
REMARK  218  A    between atoms: _519  and  _521
REMARK  219  A    between atoms: _521  and  _522
REMARK  220  A    between atoms: _521  and  _524
REMARK  221  A    between atoms: _524  and  _525
REMARK  222  A    between atoms: _525  and  _526
REMARK  223  A    between atoms: _528  and  _530
REMARK  224  A    between atoms: _530  and  _531
REMARK  225  A    between atoms: _530  and  _533
REMARK  226  A    between atoms: _533  and  _534
REMARK  227  A    between atoms: _539  and  _541
REMARK  228  A    between atoms: _541  and  _542
REMARK  229  A    between atoms: _541  and  _544
REMARK  230  A    between atoms: _544  and  _545
REMARK  231  A    between atoms: _545  and  _546
REMARK  232  A    between atoms: _546  and  _547
REMARK  233  A    between atoms: _556  and  _558
REMARK  234  A    between atoms: _558  and  _559
REMARK  235  A    between atoms: _558  and  _561
REMARK  236  A    between atoms: _561  and  _562
REMARK  237  A    between atoms: _562  and  _563
REMARK  238  A    between atoms: _568  and  _570
REMARK  239  A    between atoms: _570  and  _571
REMARK  240  A    between atoms: _570  and  _573
REMARK  241  A    between atoms: _573  and  _574
REMARK  242  A    between atoms: _579  and  _581
REMARK  243  A    between atoms: _581  and  _582
REMARK  244  A    between atoms: _581  and  _584
REMARK  245  A    between atoms: _584  and  _585
REMARK  246  A    between atoms: _588  and  _590
REMARK  247  A    between atoms: _590  and  _591
REMARK  248  A    between atoms: _590  and  _593
REMARK  249  A    between atoms: _593  and  _594
REMARK  250  A    between atoms: _599  and  _601
REMARK  251  A    between atoms: _601  and  _602
REMARK  252  A    between atoms: _601  and  _604
REMARK  253  A    between atoms: _604  and  _605
REMARK  254  A    between atoms: _605  and  _606
REMARK                            x       y       z     vdW  Elec       q    Type
REMARK                         _______ _______ _______ _____ _____    ______ ____
ROOT
ATOM      1  CA  ILE A   1     -29.403  -7.226  25.019  0.00  0.00    +0.133 C 
ENDROOT
BRANCH   1   2
ATOM      2  N   ILE A   1     -28.499  -8.250  25.539  0.00  0.00    -0.239 NA
ATOM      3  H   ILE A   1     -28.811  -9.242  25.542  0.00  0.00    +0.142 HD
ENDBRANCH   1   2
BRANCH   1   4
ATOM      4  C   ILE A   1     -29.746  -6.184  26.104  0.00  0.00    +0.224 C 
ATOM      5  O   ILE A   1     -29.674  -4.983  25.850  0.00  0.00    -0.287 OA
ENDBRANCH   1   4
BRANCH   1   6
ATOM      6  CB  ILE A   1     -30.664  -7.847  24.393  0.00  0.00    +0.023 C 
ATOM      7  CG2 ILE A   1     -31.724  -6.771  24.074  0.00  0.00    +0.002 C 
BRANCH   6   8
ATOM      8  CG1 ILE A   1     -30.293  -8.599  23.108  0.00  0.00    +0.002 C 
ATOM      9  CD1 ILE A   1     -31.284  -9.687  22.739  0.00  0.00    +0.000 C 
ENDBRANCH   6   8
ENDBRANCH   1   6
TORSDOF 4
REMARK  Name = ../refined-set-2016/3rv4/3rv4_pocket.pdb
REMARK  254 active torsions:
REMARK  status: ('A' for Active; 'I' for Inactive)
REMARK    1  A    between atoms: _1  and  _3
REMARK    2  A    between atoms: _3  and  _4
REMARK    3  A    between atoms: _3  and  _6
REMARK    4  A    between atoms: _6  and  _7
REMARK    5  A    between atoms: _7  and  _8
REMARK    6  A    between atoms: _11  and  _13
REMARK    7  A    between atoms: _13  and  _14
REMARK    8  A    between atoms: _13  and  _16
REMARK    9  A    between atoms: _16  and  _17
REMARK   10  A    between atoms: _17  and  _18
REMARK   11  A    between atoms: _18  and  _19
REMARK   12  A    between atoms: _19  and  _20
REMARK   13  A    between atoms: _24  and  _26
REMARK   14  A    between atoms: _26  and  _27
REMARK   15  A    between atoms: _26  and  _29
REMARK   16  A    between atoms: _29  and  _30
REMARK   17  A    between atoms: _33  and  _35
REMARK   18  A    between atoms: _35  and  _36
REMARK   19  A    between atoms: _35  and  _38
REMARK   20  A    between atoms: _42  and  _43
REMARK   21  A    between atoms: _49  and  _50
REMARK   22  A    between atoms: _55  and  _57
REMARK   23  A    between atoms: _57  and  _58
REMARK   24  A    between atoms: _57  and  _60
REMARK   25  A    between atoms: _63  and  _65
REMARK   26  A    between atoms: _65  and  _66
REMARK   27  A    between atoms: _65  and  _68
REMARK   28  A    between atoms: _68  and  _69
REMARK   29  A    between atoms: _72  and  _74
REMARK   30  A    between atoms: _74  and  _75
REMARK   31  A    between atoms: _74  and  _77
REMARK   32  A    between atoms: _77  and  _78
REMARK   33  A    between atoms: _81  and  _83
REMARK   34  A    between atoms: _83  and  _84
REMARK   35  A    between atoms: _83  and  _86
REMARK   36  A    between atoms: _86  and  _87
REMARK   37  A    between atoms: _87  and  _88
REMARK   38  A    between atoms: _88  and  _89
REMARK   39  A    between atoms: _89  and  _90
REMARK   40  A    between atoms: _94  and  _96
REMARK   41  A    between atoms: _96  and  _97
REMARK   42  A    between atoms: _100  and  _102
REMARK   43  A    between atoms: _102  and  _103
REMARK   44  A    between atoms: _102  and  _105
REMARK   45  A    between atoms: _105  and  _106
REMARK   46  A    between atoms: _108  and  _110
REMARK   47  A    between atoms: _110  and  _111
REMARK   48  A    between atoms: _113  and  _115
REMARK   49  A    between atoms: _115  and  _116
REMARK   50  A    between atoms: _118  and  _120
REMARK   51  A    between atoms: _120  and  _121
REMARK   52  A    between atoms: _123  and  _125
REMARK   53  A    between atoms: _125  and  _126
REMARK   54  A    between atoms: _128  and  _130
REMARK   55  A    between atoms: _130  and  _131
REMARK   56  A    between atoms: _133  and  _135
REMARK   57  A    between atoms: _135  and  _136
REMARK   58  A    between atoms: _135  and  _138
REMARK   59  A    between atoms: _138  and  _139
REMARK   60  A    between atoms: _139  and  _140
REMARK   61  A    between atoms: _140  and  _141
REMARK   62  A    between atoms: _150  and  _152
REMARK   63  A    between atoms: _152  and  _153
REMARK   64  A    between atoms: _155  and  _157
REMARK   65  A    between atoms: _157  and  _158
REMARK   66  A    between atoms: _157  and  _160
REMARK   67  A    between atoms: _160  and  _161
REMARK   68  A    between atoms: _161  and  _162
REMARK   69  A    between atoms: _164  and  _166
REMARK   70  A    between atoms: _166  and  _167
REMARK   71  A    between atoms: _166  and  _169
REMARK   72  A    between atoms: _172  and  _174
REMARK   73  A    between atoms: _174  and  _175
REMARK   74  A    between atoms: _174  and  _177
REMARK   75  A    between atoms: _177  and  _178
REMARK   76  A    between atoms: _184  and  _186
REMARK   77  A    between atoms: _186  and  _187
REMARK   78  A    between atoms: _186  and  _189
REMARK   79  A    between atoms: _189  and  _190
REMARK   80  A    between atoms: _195  and  _196
REMARK   81  A    between atoms: _198  and  _200
REMARK   82  A    between atoms: _200  and  _201
REMARK   83  A    between atoms: _200  and  _203
REMARK   84  A    between atoms: _203  and  _204
REMARK   85  A    between atoms: _204  and  _205
REMARK   86  A    between atoms: _207  and  _209
REMARK   87  A    between atoms: _209  and  _210
REMARK   88  A    between atoms: _209  and  _212
REMARK   89  A    between atoms: _212  and  _213
REMARK   90  A    between atoms: _213  and  _214
REMARK   91  A    between atoms: _217  and  _219
REMARK   92  A    between atoms: _219  and  _220
REMARK   93  A    between atoms: _219  and  _222
REMARK   94  A    between atoms: _222  and  _223
REMARK   95  A    between atoms: _223  and  _224
REMARK   96  A    between atoms: _224  and  _225
REMARK   97  A    between atoms: _225  and  _226
REMARK   98  A    between atoms: _230  and  _232
REMARK   99  A    between atoms: _232  and  _233
REMARK  100  A    between atoms: _232  and  _235
REMARK  101  A    between atoms: _235  and  _236
REMARK  102  A    between atoms: _241  and  _242
REMARK  103  A    between atoms: _244  and  _246
REMARK  104  A    between atoms: _246  and  _247
REMARK  105  A    between atoms: _246  and  _249
REMARK  106  A    between atoms: _249  and  _250
REMARK  107  A    between atoms: _253  and  _255
REMARK  108  A    between atoms: _255  and  _256
REMARK  109  A    between atoms: _255  and  _258
REMARK  110  A    between atoms: _258  and  _259
REMARK  111  A    between atoms: _259  and  _260
REMARK  112  A    between atoms: _263  and  _265
REMARK  113  A    between atoms: _265  and  _266
REMARK  114  A    between atoms: _265  and  _268
REMARK  115  A    between atoms: _268  and  _269
REMARK  116  A    between atoms: _275  and  _276
REMARK  117  A    between atoms: _281  and  _283
REMARK  118  A    between atoms: _283  and  _284
REMARK  119  A    between atoms: _283  and  _286
REMARK  120  A    between atoms: _286  and  _287
REMARK  121  A    between atoms: _287  and  _288
REMARK  122  A    between atoms: _288  and  _289
REMARK  123  A    between atoms: _298  and  _300
REMARK  124  A    between atoms: _300  and  _301
REMARK  125  A    between atoms: _300  and  _303
REMARK  126  A    between atoms: _303  and  _304
REMARK  127  A    between atoms: _309  and  _311
REMARK  128  A    between atoms: _311  and  _312
REMARK  129  A    between atoms: _311  and  _314
REMARK  130  A    between atoms: _317  and  _319
REMARK  131  A    between atoms: _319  and  _320
REMARK  132  A    between atoms: _319  and  _322
REMARK  133  A    between atoms: _322  and  _323
REMARK  134  A    between atoms: _323  and  _324
REMARK  135  A    between atoms: _327  and  _329
REMARK  136  A    between atoms: _329  and  _330
REMARK  137  A    between atoms: _329  and  _332
REMARK  138  A    between atoms: _334  and  _336
REMARK  139  A    between atoms: _336  and  _337
REMARK  140  A    between atoms: _336  and  _339
REMARK  141  A    between atoms: _339  and  _340
REMARK  142  A    between atoms: _342  and  _344
REMARK  143  A    between atoms: _344  and  _345
REMARK  144  A    between atoms: _344  and  _347
REMARK  145  A    between atoms: _347  and  _348
REMARK  146  A    between atoms: _348  and  _349
REMARK  147  A    between atoms: _351  and  _353
REMARK  148  A    between atoms: _353  and  _354
REMARK  149  A    between atoms: _353  and  _356
REMARK  150  A    between atoms: _356  and  _357
REMARK  151  A    between atoms: _357  and  _358
REMARK  152  A    between atoms: _363  and  _365
REMARK  153  A    between atoms: _365  and  _366
REMARK  154  A    between atoms: _365  and  _368
REMARK  155  A    between atoms: _368  and  _369
REMARK  156  A    between atoms: _369  and  _370
REMARK  157  A    between atoms: _370  and  _371
REMARK  158  A    between atoms: _380  and  _382
REMARK  159  A    between atoms: _382  and  _383
REMARK  160  A    between atoms: _382  and  _385
REMARK  161  A    between atoms: _385  and  _386
REMARK  162  A    between atoms: _386  and  _387
REMARK  163  A    between atoms: _387  and  _388
REMARK  164  A    between atoms: _397  and  _399
REMARK  165  A    between atoms: _399  and  _400
REMARK  166  A    between atoms: _399  and  _402
REMARK  167  A    between atoms: _402  and  _403
REMARK  168  A    between atoms: _408  and  _410
REMARK  169  A    between atoms: _410  and  _411
REMARK  170  A    between atoms: _410  and  _413
REMARK  171  A    between atoms: _413  and  _414
REMARK  172  A    between atoms: _414  and  _415
REMARK  173  A    between atoms: _420  and  _422
REMARK  174  A    between atoms: _422  and  _423
REMARK  175  A    between atoms: _422  and  _425
REMARK  176  A    between atoms: _425  and  _426
REMARK  177  A    between atoms: _426  and  _427
REMARK  178  A    between atoms: _427  and  _428
REMARK  179  A    between atoms: _428  and  _429
REMARK  180  A    between atoms: _433  and  _435
REMARK  181  A    between atoms: _435  and  _436
REMARK  182  A    between atoms: _435  and  _438
REMARK  183  A    between atoms: _438  and  _439
REMARK  184  A    between atoms: _439  and  _440
REMARK  185  A    between atoms: _443  and  _445
REMARK  186  A    between atoms: _445  and  _446
REMARK  187  A    between atoms: _445  and  _448
REMARK  188  A    between atoms: _448  and  _449
REMARK  189  A    between atoms: _455  and  _457
REMARK  190  A    between atoms: _457  and  _458
REMARK  191  A    between atoms: _457  and  _460
REMARK  192  A    between atoms: _460  and  _461
REMARK  193  A    between atoms: _464  and  _466
REMARK  194  A    between atoms: _466  and  _467
REMARK  195  A    between atoms: _466  and  _469
REMARK  196  A    between atoms: _469  and  _470
REMARK  197  A    between atoms: _470  and  _471
REMARK  198  A    between atoms: _474  and  _476
REMARK  199  A    between atoms: _476  and  _477
REMARK  200  A    between atoms: _476  and  _479
REMARK  201  A    between atoms: _479  and  _480
REMARK  202  A    between atoms: _485  and  _486
REMARK  203  A    between atoms: _488  and  _490
REMARK  204  A    between atoms: _490  and  _491
REMARK  205  A    between atoms: _490  and  _493
REMARK  206  A    between atoms: _493  and  _494
REMARK  207  A    between atoms: _500  and  _502
REMARK  208  A    between atoms: _502  and  _503
REMARK  209  A    between atoms: _502  and  _505
REMARK  210  A    between atoms: _505  and  _506
REMARK  211  A    between atoms: _509  and  _511
REMARK  212  A    between atoms: _511  and  _512
REMARK  213  A    between atoms: _511  and  _514
REMARK  214  A    between atoms: _514  and  _515
REMARK  215  A    between atoms: _515  and  _516
REMARK  216  A    between atoms: _516  and  _518
REMARK  217  A    between atoms: _518  and  MG_609
REMARK  218  A    between atoms: _519  and  _521
REMARK  219  A    between atoms: _521  and  _522
REMARK  220  A    between atoms: _521  and  _524
REMARK  221  A    between atoms: _524  and  _525
REMARK  222  A    between atoms: _525  and  _526
REMARK  223  A    between atoms: _528  and  _530
REMARK  224  A    between atoms: _530  and  _531
REMARK  225  A    between atoms: _530  and  _533
REMARK  226  A    between atoms: _533  and  _534
REMARK  227  A    between atoms: _539  and  _541
REMARK  228  A    between atoms: _541  and  _542
REMARK  229  A    between atoms: _541  and  _544
REMARK  230  A    between atoms: _544  and  _545
REMARK  231  A    between atoms: _545  and  _546
REMARK  232  A    between atoms: _546  and  _547
REMARK  233  A    between atoms: _556  and  _558
REMARK  234  A    between atoms: _558  and  _559
REMARK  235  A    between atoms: _558  and  _561
REMARK  236  A    between atoms: _561  and  _562
REMARK  237  A    between atoms: _562  and  _563
REMARK  238  A    between atoms: _568  and  _570
REMARK  239  A    between atoms: _570  and  _571
REMARK  240  A    between atoms: _570  and  _573
REMARK  241  A    between atoms: _573  and  _574
REMARK  242  A    between atoms: _579  and  _581
REMARK  243  A    between atoms: _581  and  _582
REMARK  244  A    between atoms: _581  and  _584
REMARK  245  A    between atoms: _584  and  _585
REMARK  246  A    between atoms: _588  and  _590
REMARK  247  A    between atoms: _590  and  _591
REMARK  248  A    between atoms: _590  and  _593
REMARK  249  A    between atoms: _593  and  _594
REMARK  250  A    between atoms: _599  and  _601
REMARK  251  A    between atoms: _601  and  _602
REMARK  252  A    between atoms: _601  and  _604
REMARK  253  A    between atoms: _604  and  _605
REMARK  254  A    between atoms: _605  and  _606
REMARK                            x       y       z     vdW  Elec       q    Type
REMARK                         _______ _______ _______ _____ _____    ______ ____
ROOT
ATOM      1  C   VAL A   1     -35.138  -5.295  18.723  0.00  0.00    +0.241 C 
ATOM      2  O   VAL A   1     -35.050  -5.815  19.849  0.00  0.00    -0.273 OA
ATOM      3  N   PRO A   2     -36.243  -4.632  18.306  0.00  0.00    -0.273 N 
ATOM      4  CA  PRO A   2     -37.477  -4.715  19.093  0.00  0.00    +0.140 C 
ATOM      5  CB  PRO A   2     -38.548  -4.178  18.141  0.00  0.00    +0.030 C 
ATOM      6  CG  PRO A   2     -37.809  -3.272  17.185  0.00  0.00    +0.024 C 
ATOM      7  CD  PRO A   2     -36.386  -3.773  17.107  0.00  0.00    +0.094 C 
ENDROOT
BRANCH   4   8
ATOM      8  C   PRO A   2     -37.772  -6.170  19.439  0.00  0.00    +0.227 C 
ATOM      9  O   PRO A   2     -37.653  -7.053  18.583  0.00  0.00    -0.286 OA
ENDBRANCH   4   8
BRANCH   1  10
ATOM     10  CA  VAL A   1     -33.940  -5.356  17.755  0.00  0.00    +0.145 C 
BRANCH  10  11
ATOM     11  CB  VAL A   1     -33.847  -6.764  17.091  0.00  0.00    +0.025 C 
ATOM     12  CG2 VAL A   1     -32.536  -6.947  16.325  0.00  0.00    +0.002 C 
ATOM     13  CG1 VAL A   1     -35.032  -7.017  16.160  0.00  0.00    +0.002 C 
ENDBRANCH  10  11
BRANCH  10  14
ATOM     14  N   VAL A   1     -32.739  -5.001  18.512  0.00  0.00    -0.238 NA
ATOM     15  H   VAL A   1     -32.040  -5.734  18.748  0.00  0.00    +0.142 HD
ENDBRANCH  10  14
ENDBRANCH   1  10
TORSDOF 4
REMARK  Name = ../refined-set-2016/3rv4/3rv4_pocket.pdb
REMARK  254 active torsions:
REMARK  status: ('A' for Active; 'I' for Inactive)
REMARK    1  A    between atoms: _1  and  _3
REMARK    2  A    between atoms: _3  and  _4
REMARK    3  A    between atoms: _3  and  _6
REMARK    4  A    between atoms: _6  and  _7
REMARK    5  A    between atoms: _7  and  _8
REMARK    6  A    between atoms: _11  and  _13
REMARK    7  A    between atoms: _13  and  _14
REMARK    8  A    between atoms: _13  and  _16
REMARK    9  A    between atoms: _16  and  _17
REMARK   10  A    between atoms: _17  and  _18
REMARK   11  A    between atoms: _18  and  _19
REMARK   12  A    between atoms: _19  and  _20
REMARK   13  A    between atoms: _24  and  _26
REMARK   14  A    between atoms: _26  and  _27
REMARK   15  A    between atoms: _26  and  _29
REMARK   16  A    between atoms: _29  and  _30
REMARK   17  A    between atoms: _33  and  _35
REMARK   18  A    between atoms: _35  and  _36
REMARK   19  A    between atoms: _35  and  _38
REMARK   20  A    between atoms: _42  and  _43
REMARK   21  A    between atoms: _49  and  _50
REMARK   22  A    between atoms: _55  and  _57
REMARK   23  A    between atoms: _57  and  _58
REMARK   24  A    between atoms: _57  and  _60
REMARK   25  A    between atoms: _63  and  _65
REMARK   26  A    between atoms: _65  and  _66
REMARK   27  A    between atoms: _65  and  _68
REMARK   28  A    between atoms: _68  and  _69
REMARK   29  A    between atoms: _72  and  _74
REMARK   30  A    between atoms: _74  and  _75
REMARK   31  A    between atoms: _74  and  _77
REMARK   32  A    between atoms: _77  and  _78
REMARK   33  A    between atoms: _81  and  _83
REMARK   34  A    between atoms: _83  and  _84
REMARK   35  A    between atoms: _83  and  _86
REMARK   36  A    between atoms: _86  and  _87
REMARK   37  A    between atoms: _87  and  _88
REMARK   38  A    between atoms: _88  and  _89
REMARK   39  A    between atoms: _89  and  _90
REMARK   40  A    between atoms: _94  and  _96
REMARK   41  A    between atoms: _96  and  _97
REMARK   42  A    between atoms: _100  and  _102
REMARK   43  A    between atoms: _102  and  _103
REMARK   44  A    between atoms: _102  and  _105
REMARK   45  A    between atoms: _105  and  _106
REMARK   46  A    between atoms: _108  and  _110
REMARK   47  A    between atoms: _110  and  _111
REMARK   48  A    between atoms: _113  and  _115
REMARK   49  A    between atoms: _115  and  _116
REMARK   50  A    between atoms: _118  and  _120
REMARK   51  A    between atoms: _120  and  _121
REMARK   52  A    between atoms: _123  and  _125
REMARK   53  A    between atoms: _125  and  _126
REMARK   54  A    between atoms: _128  and  _130
REMARK   55  A    between atoms: _130  and  _131
REMARK   56  A    between atoms: _133  and  _135
REMARK   57  A    between atoms: _135  and  _136
REMARK   58  A    between atoms: _135  and  _138
REMARK   59  A    between atoms: _138  and  _139
REMARK   60  A    between atoms: _139  and  _140
REMARK   61  A    between atoms: _140  and  _141
REMARK   62  A    between atoms: _150  and  _152
REMARK   63  A    between atoms: _152  and  _153
REMARK   64  A    between atoms: _155  and  _157
REMARK   65  A    between atoms: _157  and  _158
REMARK   66  A    between atoms: _157  and  _160
REMARK   67  A    between atoms: _160  and  _161
REMARK   68  A    between atoms: _161  and  _162
REMARK   69  A    between atoms: _164  and  _166
REMARK   70  A    between atoms: _166  and  _167
REMARK   71  A    between atoms: _166  and  _169
REMARK   72  A    between atoms: _172  and  _174
REMARK   73  A    between atoms: _174  and  _175
REMARK   74  A    between atoms: _174  and  _177
REMARK   75  A    between atoms: _177  and  _178
REMARK   76  A    between atoms: _184  and  _186
REMARK   77  A    between atoms: _186  and  _187
REMARK   78  A    between atoms: _186  and  _189
REMARK   79  A    between atoms: _189  and  _190
REMARK   80  A    between atoms: _195  and  _196
REMARK   81  A    between atoms: _198  and  _200
REMARK   82  A    between atoms: _200  and  _201
REMARK   83  A    between atoms: _200  and  _203
REMARK   84  A    between atoms: _203  and  _204
REMARK   85  A    between atoms: _204  and  _205
REMARK   86  A    between atoms: _207  and  _209
REMARK   87  A    between atoms: _209  and  _210
REMARK   88  A    between atoms: _209  and  _212
REMARK   89  A    between atoms: _212  and  _213
REMARK   90  A    between atoms: _213  and  _214
REMARK   91  A    between atoms: _217  and  _219
REMARK   92  A    between atoms: _219  and  _220
REMARK   93  A    between atoms: _219  and  _222
REMARK   94  A    between atoms: _222  and  _223
REMARK   95  A    between atoms: _223  and  _224
REMARK   96  A    between atoms: _224  and  _225
REMARK   97  A    between atoms: _225  and  _226
REMARK   98  A    between atoms: _230  and  _232
REMARK   99  A    between atoms: _232  and  _233
REMARK  100  A    between atoms: _232  and  _235
REMARK  101  A    between atoms: _235  and  _236
REMARK  102  A    between atoms: _241  and  _242
REMARK  103  A    between atoms: _244  and  _246
REMARK  104  A    between atoms: _246  and  _247
REMARK  105  A    between atoms: _246  and  _249
REMARK  106  A    between atoms: _249  and  _250
REMARK  107  A    between atoms: _253  and  _255
REMARK  108  A    between atoms: _255  and  _256
REMARK  109  A    between atoms: _255  and  _258
REMARK  110  A    between atoms: _258  and  _259
REMARK  111  A    between atoms: _259  and  _260
REMARK  112  A    between atoms: _263  and  _265
REMARK  113  A    between atoms: _265  and  _266
REMARK  114  A    between atoms: _265  and  _268
REMARK  115  A    between atoms: _268  and  _269
REMARK  116  A    between atoms: _275  and  _276
REMARK  117  A    between atoms: _281  and  _283
REMARK  118  A    between atoms: _283  and  _284
REMARK  119  A    between atoms: _283  and  _286
REMARK  120  A    between atoms: _286  and  _287
REMARK  121  A    between atoms: _287  and  _288
REMARK  122  A    between atoms: _288  and  _289
REMARK  123  A    between atoms: _298  and  _300
REMARK  124  A    between atoms: _300  and  _301
REMARK  125  A    between atoms: _300  and  _303
REMARK  126  A    between atoms: _303  and  _304
REMARK  127  A    between atoms: _309  and  _311
REMARK  128  A    between atoms: _311  and  _312
REMARK  129  A    between atoms: _311  and  _314
REMARK  130  A    between atoms: _317  and  _319
REMARK  131  A    between atoms: _319  and  _320
REMARK  132  A    between atoms: _319  and  _322
REMARK  133  A    between atoms: _322  and  _323
REMARK  134  A    between atoms: _323  and  _324
REMARK  135  A    between atoms: _327  and  _329
REMARK  136  A    between atoms: _329  and  _330
REMARK  137  A    between atoms: _329  and  _332
REMARK  138  A    between atoms: _334  and  _336
REMARK  139  A    between atoms: _336  and  _337
REMARK  140  A    between atoms: _336  and  _339
REMARK  141  A    between atoms: _339  and  _340
REMARK  142  A    between atoms: _342  and  _344
REMARK  143  A    between atoms: _344  and  _345
REMARK  144  A    between atoms: _344  and  _347
REMARK  145  A    between atoms: _347  and  _348
REMARK  146  A    between atoms: _348  and  _349
REMARK  147  A    between atoms: _351  and  _353
REMARK  148  A    between atoms: _353  and  _354
REMARK  149  A    between atoms: _353  and  _356
REMARK  150  A    between atoms: _356  and  _357
REMARK  151  A    between atoms: _357  and  _358
REMARK  152  A    between atoms: _363  and  _365
REMARK  153  A    between atoms: _365  and  _366
REMARK  154  A    between atoms: _365  and  _368
REMARK  155  A    between atoms: _368  and  _369
REMARK  156  A    between atoms: _369  and  _370
REMARK  157  A    between atoms: _370  and  _371
REMARK  158  A    between atoms: _380  and  _382
REMARK  159  A    between atoms: _382  and  _383
REMARK  160  A    between atoms: _382  and  _385
REMARK  161  A    between atoms: _385  and  _386
REMARK  162  A    between atoms: _386  and  _387
REMARK  163  A    between atoms: _387  and  _388
REMARK  164  A    between atoms: _397  and  _399
REMARK  165  A    between atoms: _399  and  _400
REMARK  166  A    between atoms: _399  and  _402
REMARK  167  A    between atoms: _402  and  _403
REMARK  168  A    between atoms: _408  and  _410
REMARK  169  A    between atoms: _410  and  _411
REMARK  170  A    between atoms: _410  and  _413
REMARK  171  A    between atoms: _413  and  _414
REMARK  172  A    between atoms: _414  and  _415
REMARK  173  A    between atoms: _420  and  _422
REMARK  174  A    between atoms: _422  and  _423
REMARK  175  A    between atoms: _422  and  _425
REMARK  176  A    between atoms: _425  and  _426
REMARK  177  A    between atoms: _426  and  _427
REMARK  178  A    between atoms: _427  and  _428
REMARK  179  A    between atoms: _428  and  _429
REMARK  180  A    between atoms: _433  and  _435
REMARK  181  A    between atoms: _435  and  _436
REMARK  182  A    between atoms: _435  and  _438
REMARK  183  A    between atoms: _438  and  _439
REMARK  184  A    between atoms: _439  and  _440
REMARK  185  A    between atoms: _443  and  _445
REMARK  186  A    between atoms: _445  and  _446
REMARK  187  A    between atoms: _445  and  _448
REMARK  188  A    between atoms: _448  and  _449
REMARK  189  A    between atoms: _455  and  _457
REMARK  190  A    between atoms: _457  and  _458
REMARK  191  A    between atoms: _457  and  _460
REMARK  192  A    between atoms: _460  and  _461
REMARK  193  A    between atoms: _464  and  _466
REMARK  194  A    between atoms: _466  and  _467
REMARK  195  A    between atoms: _466  and  _469
REMARK  196  A    between atoms: _469  and  _470
REMARK  197  A    between atoms: _470  and  _471
REMARK  198  A    between atoms: _474  and  _476
REMARK  199  A    between atoms: _476  and  _477
REMARK  200  A    between atoms: _476  and  _479
REMARK  201  A    between atoms: _479  and  _480
REMARK  202  A    between atoms: _485  and  _486
REMARK  203  A    between atoms: _488  and  _490
REMARK  204  A    between atoms: _490  and  _491
REMARK  205  A    between atoms: _490  and  _493
REMARK  206  A    between atoms: _493  and  _494
REMARK  207  A    between atoms: _500  and  _502
REMARK  208  A    between atoms: _502  and  _503
REMARK  209  A    between atoms: _502  and  _505
REMARK  210  A    between atoms: _505  and  _506
REMARK  211  A    between atoms: _509  and  _511
REMARK  212  A    between atoms: _511  and  _512
REMARK  213  A    between atoms: _511  and  _514
REMARK  214  A    between atoms: _514  and  _515
REMARK  215  A    between atoms: _515  and  _516
REMARK  216  A    between atoms: _516  and  _518
REMARK  217  A    between atoms: _518  and  MG_609
REMARK  218  A    between atoms: _519  and  _521
REMARK  219  A    between atoms: _521  and  _522
REMARK  220  A    between atoms: _521  and  _524
REMARK  221  A    between atoms: _524  and  _525
REMARK  222  A    between atoms: _525  and  _526
REMARK  223  A    between atoms: _528  and  _530
REMARK  224  A    between atoms: _530  and  _531
REMARK  225  A    between atoms: _530  and  _533
REMARK  226  A    between atoms: _533  and  _534
REMARK  227  A    between atoms: _539  and  _541
REMARK  228  A    between atoms: _541  and  _542
REMARK  229  A    between atoms: _541  and  _544
REMARK  230  A    between atoms: _544  and  _545
REMARK  231  A    between atoms: _545  and  _546
REMARK  232  A    between atoms: _546  and  _547
REMARK  233  A    between atoms: _556  and  _558
REMARK  234  A    between atoms: _558  and  _559
REMARK  235  A    between atoms: _558  and  _561
REMARK  236  A    between atoms: _561  and  _562
REMARK  237  A    between atoms: _562  and  _563
REMARK  238  A    between atoms: _568  and  _570
REMARK  239  A    between atoms: _570  and  _571
REMARK  240  A    between atoms: _570  and  _573
REMARK  241  A    between atoms: _573  and  _574
REMARK  242  A    between atoms: _579  and  _581
REMARK  243  A    between atoms: _581  and  _582
REMARK  244  A    between atoms: _581  and  _584
REMARK  245  A    between atoms: _584  and  _585
REMARK  246  A    between atoms: _588  and  _590
REMARK  247  A    between atoms: _590  and  _591
REMARK  248  A    between atoms: _590  and  _593
REMARK  249  A    between atoms: _593  and  _594
REMARK  250  A    between atoms: _599  and  _601
REMARK  251  A    between atoms: _601  and  _602
REMARK  252  A    between atoms: _601  and  _604
REMARK  253  A    between atoms: _604  and  _605
REMARK  254  A    between atoms: _605  and  _606
REMARK                            x       y       z     vdW  Elec       q    Type
REMARK                         _______ _______ _______ _____ _____    ______ ____
ROOT
ATOM      1  CA  SER A   7     -30.698 -17.254  24.899  0.00  0.00    +0.178 C 
ENDROOT
BRANCH   1   2
ATOM      2  C   SER A   7     -29.298 -17.859  25.059  0.00  0.00    +0.243 C 
ATOM      3  N   GLY A   8     -29.227 -19.185  25.136  0.00  0.00    -0.295 N 
ATOM      4  H   GLY A   8     -30.105 -19.742  25.126  0.00  0.00    +0.150 HD
ATOM      5  O   SER A   7     -28.296 -17.129  25.103  0.00  0.00    -0.273 OA
BRANCH   3   6
ATOM      6  CA  GLY A   8     -27.943 -19.879  25.235  0.00  0.00    +0.176 C 
BRANCH   6   7
ATOM      7  C   GLY A   8     -27.450 -20.359  23.883  0.00  0.00    +0.243 C 
ATOM      8  O   GLY A   8     -26.499 -21.134  23.807  0.00  0.00    -0.273 OA
ATOM      9  N   GLY A   9     -28.095 -19.881  22.819  0.00  0.00    -0.295 N 
ATOM     10  H   GLY A   9     -28.790 -19.121  22.966  0.00  0.00    +0.150 HD
BRANCH   9  11
ATOM     11  CA  GLY A   9     -27.879 -20.367  21.456  0.00  0.00    +0.176 C 
BRANCH  11  12
ATOM     12  C   GLY A   9     -26.575 -19.958  20.815  0.00  0.00    +0.243 C 
ATOM     13  O   GLY A   9     -25.938 -18.978  21.219  0.00  0.00    -0.273 OA
ATOM     14  N   GLY A  10     -26.179 -20.722  19.805  0.00  0.00    -0.295 N 
ATOM     15  H   GLY A  10     -26.765 -21.537  19.532  0.00  0.00    +0.150 HD
BRANCH  14  16
ATOM     16  CA  GLY A  10     -24.953 -20.459  19.067  0.00  0.00    +0.176 C 
BRANCH  16  17
ATOM     17  C   GLY A  10     -24.886 -21.261  17.786  0.00  0.00    +0.243 C 
ATOM     18  O   GLY A  10     -25.625 -22.234  17.620  0.00  0.00    -0.273 OA
ATOM     19  N   GLY A  11     -24.007 -20.838  16.878  0.00  0.00    -0.295 N 
ATOM     20  H   GLY A  11     -23.474 -19.965  17.068  0.00  0.00    +0.150 HD
BRANCH  19  21
ATOM     21  CA  GLY A  11     -23.762 -21.552  15.626  0.00  0.00    +0.176 C 
BRANCH  21  22
ATOM     22  C   GLY A  11     -24.957 -21.654  14.690  0.00  0.00    +0.243 C 
ATOM     23  N   GLY A  12     -25.956 -20.793  14.883  0.00  0.00    -0.295 N 
ATOM     24  H   GLY A  12     -25.875 -20.092  15.647  0.00  0.00    +0.150 HD
ATOM     25  O   GLY A  11     -24.975 -22.504  13.805  0.00  0.00    -0.273 OA
BRANCH  23  26
ATOM     26  CA  GLY A  12     -27.165 -20.801  14.055  0.00  0.00    +0.176 C 
BRANCH  26  27
ATOM     27  C   GLY A  12     -28.309 -21.653  14.576  0.00  0.00    +0.243 C 
ATOM     28  N   ARG A  13     -28.056 -22.410  15.638  0.00  0.00    -0.297 N 
ATOM     29  H   ARG A  13     -27.143 -22.320  16.128  0.00  0.00    +0.150 HD
ATOM     30  O   GLY A  12     -29.419 -21.624  14.033  0.00  0.00    -0.273 OA
BRANCH  28  31
ATOM     31  CA  ARG A  13     -29.050 -23.371  16.128  0.00  0.00    +0.149 C 
BRANCH  31  32
ATOM     32  C   ARG A  13     -29.940 -22.778  17.239  0.00  0.00    +0.241 C 
ATOM     33  O   ARG A  13     -29.525 -21.880  17.976  0.00  0.00    -0.273 OA
ATOM     34  N   GLY A  14     -31.166 -23.277  17.339  0.00  0.00    -0.295 N 
ATOM     35  H   GLY A  14     -31.463 -24.022  16.677  0.00  0.00    +0.150 HD
BRANCH  34  36
ATOM     36  CA  GLY A  14     -32.106 -22.812  18.347  0.00  0.00    +0.176 C 
BRANCH  36  37
ATOM     37  C   GLY A  14     -32.801 -21.528  17.941  0.00  0.00    +0.243 C 
ATOM     38  O   GLY A  14     -32.935 -20.609  18.752  0.00  0.00    -0.273 OA
ATOM     39  N   MET A  15     -33.240 -21.473  16.683  0.00  0.00    -0.298 N 
ATOM     40  H   MET A  15     -33.057 -22.284  16.058  0.00  0.00    +0.150 HD
BRANCH  39  41
ATOM     41  CA  MET A  15     -33.966 -20.326  16.141  0.00  0.00    +0.138 C 
BRANCH  41  42
ATOM     42  C   MET A  15     -35.150 -20.763  15.281  0.00  0.00    +0.227 C 
ATOM     43  O   MET A  15     -35.004 -21.633  14.424  0.00  0.00    -0.286 OA
ENDBRANCH  41  42
BRANCH  41  44
ATOM     44  CB  MET A  15     -33.036 -19.465  15.289  0.00  0.00    +0.039 C 
BRANCH  44  45
ATOM     45  CG  MET A  15     -32.356 -18.344  16.019  0.00  0.00    +0.060 C 
BRANCH  45  46
ATOM     46  SD  MET A  15     -31.366 -17.403  14.852  0.00  0.00    -0.139 S 
ATOM     47  CE  MET A  15     -29.756 -18.114  15.154  0.00  0.00    +0.069 C 
ENDBRANCH  45  46
ENDBRANCH  44  45
ENDBRANCH  41  44
ENDBRANCH  39  41
ENDBRANCH  36  37
ENDBRANCH  34  36
ENDBRANCH  31  32
BRANCH  31  48
ATOM     48  CB  ARG A  13     -28.370 -24.675  16.584  0.00  0.00    +0.033 C 
BRANCH  48  49
ATOM     49  CG  ARG A  13     -27.411 -25.293  15.555  0.00  0.00    +0.045 C 
BRANCH  49  50
ATOM     50  CD  ARG A  13     -27.062 -26.748  15.893  0.00  0.00    +0.174 C 
BRANCH  50  51
ATOM     51  NE  ARG A  13     -26.067 -27.299  14.965  0.00  0.00    -0.265 N 
ATOM     52  CZ  ARG A  13     -25.798 -28.599  14.803  0.00  0.00    +0.342 C 
ATOM     53  NH2 ARG A  13     -26.454 -29.530  15.498  0.00  0.00    -0.292 N 
ATOM     54 HH21 ARG A  13     -27.188 -29.249  16.179  0.00  0.00    +0.255 HD
ATOM     55 HH22 ARG A  13     -26.231 -30.536  15.359  0.00  0.00    +0.255 HD
ATOM     56  NH1 ARG A  13     -24.868 -28.973  13.928  0.00  0.00    -0.292 N 
ATOM     57 HH11 ARG A  13     -24.653 -29.982  13.797  0.00  0.00    +0.255 HD
ATOM     58 HH12 ARG A  13     -24.356 -28.256  13.375  0.00  0.00    +0.255 HD
ATOM     59  HE  ARG A  13     -25.528 -26.624  14.387  0.00  0.00    +0.259 HD
ENDBRANCH  50  51
ENDBRANCH  49  50
ENDBRANCH  48  49
ENDBRANCH  31  48
ENDBRANCH  28  31
ENDBRANCH  26  27
ENDBRANCH  23  26
ENDBRANCH  21  22
ENDBRANCH  19  21
ENDBRANCH  16  17
ENDBRANCH  14  16
ENDBRANCH  11  12
ENDBRANCH   9  11
ENDBRANCH   6   7
ENDBRANCH   3   6
ENDBRANCH   1   2
BRANCH   1  61
ATOM     60  C   ALA A   6     -31.366 -18.506  22.907  0.00  0.00    +0.241 C 
ATOM     61  N   SER A   7     -31.626 -18.104  24.148  0.00  0.00    -0.295 N 
ATOM     62  H   SER A   7     -32.515 -18.402  24.599  0.00  0.00    +0.150 HD
ATOM     63  O   ALA A   6     -30.370 -18.132  22.269  0.00  0.00    -0.273 OA
BRANCH  60  64
ATOM     64  CA  ALA A   6     -32.379 -19.470  22.287  0.00  0.00    +0.149 C 
ATOM     65  CB  ALA A   6     -31.734 -20.799  21.982  0.00  0.00    +0.031 C 
BRANCH  64  68
ATOM     66  C   LYS A   5     -33.827 -17.897  21.122  0.00  0.00    +0.241 C 
ATOM     67  O   LYS A   5     -34.247 -17.424  22.172  0.00  0.00    -0.273 OA
ATOM     68  N   ALA A   6     -32.963 -18.901  21.072  0.00  0.00    -0.297 N 
ATOM     69  H   ALA A   6     -32.694 -19.294  20.147  0.00  0.00    +0.150 HD
BRANCH  66  70
ATOM     70  CA  LYS A   5     -34.272 -17.331  19.784  0.00  0.00    +0.149 C 
BRANCH  70  72
ATOM     71  C   ILE A   4     -36.421 -17.695  18.714  0.00  0.00    +0.241 C 
ATOM     72  N   LYS A   5     -35.715 -17.168  19.706  0.00  0.00    -0.297 N 
ATOM     73  H   LYS A   5     -36.205 -16.625  20.445  0.00  0.00    +0.150 HD
ATOM     74  O   ILE A   4     -35.956 -18.490  17.899  0.00  0.00    -0.273 OA
BRANCH  71  75
ATOM     75  CA  ILE A   4     -37.871 -17.256  18.625  0.00  0.00    +0.149 C 
BRANCH  75  78
ATOM     76  C   ILE A   3     -38.002 -15.455  16.984  0.00  0.00    +0.241 C 
ATOM     77  O   ILE A   3     -37.808 -14.587  17.831  0.00  0.00    -0.273 OA
ATOM     78  N   ILE A   4     -38.092 -16.749  17.275  0.00  0.00    -0.297 N 
ATOM     79  H   ILE A   4     -38.327 -17.421  16.517  0.00  0.00    +0.150 HD
BRANCH  76  80
ATOM     80  CA  ILE A   3     -38.214 -15.084  15.510  0.00  0.00    +0.149 C 
BRANCH  80  82
ATOM     81  C   VAL A   2     -40.210 -13.953  14.647  0.00  0.00    +0.241 C 
ATOM     82  N   ILE A   3     -39.125 -13.939  15.419  0.00  0.00    -0.297 N 
ATOM     83  H   ILE A   3     -38.917 -13.086  15.977  0.00  0.00    +0.150 HD
ATOM     84  O   VAL A   2     -40.511 -14.901  13.920  0.00  0.00    -0.273 OA
BRANCH  81  85
ATOM     85  CA  VAL A   2     -41.076 -12.704  14.678  0.00  0.00    +0.148 C 
BRANCH  85  87
ATOM     86  C   PRO A   1     -42.049 -11.705  12.674  0.00  0.00    +0.239 C 
ATOM     87  N   VAL A   2     -41.937 -12.731  13.510  0.00  0.00    -0.297 N 
ATOM     88  H   VAL A   2     -42.490 -13.591  13.319  0.00  0.00    +0.150 HD
ATOM     89  O   PRO A   1     -41.488 -10.612  12.845  0.00  0.00    -0.274 OA
BRANCH  86  91
ATOM     90  N   PRO A   1     -43.456 -10.703  10.853  0.00  0.00    -0.210 NA
ATOM     91  CA  PRO A   1     -42.972 -11.941  11.468  0.00  0.00    +0.149 C 
ATOM     92  CB  PRO A   1     -42.213 -12.633  10.335  0.00  0.00    +0.028 C 
ATOM     93  CG  PRO A   1     -41.794 -11.528   9.421  0.00  0.00    +0.021 C 
ATOM     94  CD  PRO A   1     -42.857 -10.477   9.522  0.00  0.00    +0.089 C 
ENDBRANCH  86  91
ENDBRANCH  85  87
BRANCH  85  95
ATOM     95  CB  VAL A   2     -41.883 -12.621  16.002  0.00  0.00    +0.027 C 
ATOM     96  CG2 VAL A   2     -42.704 -13.878  16.220  0.00  0.00    +0.002 C 
ATOM     97  CG1 VAL A   2     -42.769 -11.397  16.001  0.00  0.00    +0.002 C 
ENDBRANCH  85  95
ENDBRANCH  81  85
ENDBRANCH  80  82
BRANCH  80  98
ATOM     98  CB  ILE A   3     -36.866 -14.830  14.758  0.00  0.00    +0.027 C 
ATOM     99  CG2 ILE A   3     -36.147 -13.605  15.303  0.00  0.00    +0.002 C 
BRANCH  98 100
ATOM    100  CG1 ILE A   3     -35.948 -16.060  14.821  0.00  0.00    +0.002 C 
ATOM    101  CD1 ILE A   3     -34.973 -16.183  13.663  0.00  0.00    +0.000 C 
ENDBRANCH  98 100
ENDBRANCH  80  98
ENDBRANCH  76  80
ENDBRANCH  75  78
BRANCH  75 102
ATOM    102  CB  ILE A   4     -38.827 -18.448  18.993  0.00  0.00    +0.027 C 
ATOM    103  CG2 ILE A   4     -38.694 -18.801  20.485  0.00  0.00    +0.002 C 
BRANCH 102 104
ATOM    104  CG1 ILE A   4     -40.285 -18.170  18.540  0.00  0.00    +0.002 C 
ATOM    105  CD1 ILE A   4     -40.942 -16.901  19.110  0.00  0.00    +0.000 C 
ENDBRANCH 102 104
ENDBRANCH  75 102
ENDBRANCH  71  75
ENDBRANCH  70  72
BRANCH  70 106
ATOM    106  CB  LYS A   5     -33.595 -15.976  19.542  0.00  0.00    +0.029 C 
BRANCH 106 107
ATOM    107  CG  LYS A   5     -33.785 -15.448  18.115  0.00  0.00    +0.000 C 
BRANCH 107 108
ATOM    108  CD  LYS A   5     -33.060 -14.119  17.917  0.00  0.00    -0.024 C 
BRANCH 108 109
ATOM    109  CE  LYS A   5     -31.588 -14.347  17.632  0.00  0.00    -0.086 C 
BRANCH 109 110
ATOM    110  NZ  LYS A   5     -30.909 -13.070  17.300  0.00  0.00    +0.380 N 
ATOM    111  HZ1 LYS A   5     -30.997 -12.413  18.102  0.00  0.00    -0.089 HD
ATOM    112  HZ2 LYS A   5     -29.903 -13.253  17.109  0.00  0.00    -0.089 HD
ATOM    113  HZ3 LYS A   5     -31.352 -12.652  16.457  0.00  0.00    -0.089 HD
ENDBRANCH 109 110
ENDBRANCH 108 109
ENDBRANCH 107 108
ENDBRANCH 106 107
ENDBRANCH  70 106
ENDBRANCH  66  70
ENDBRANCH  64  68
ENDBRANCH  60  64
ENDBRANCH   1  61
BRANCH   1 114
ATOM    114  CB  SER A   7     -31.281 -16.922  26.267  0.00  0.00    +0.166 C 
BRANCH 114 115
ATOM    115  OG  SER A   7     -30.473 -15.980  26.938  0.00  0.00    -0.380 OA
ATOM    116  H   SER A   7     -29.564 -16.353  27.059  0.00  0.00    +0.211 HD
ENDBRANCH 114 115
ENDBRANCH   1 114
TORSDOF 48
REMARK  Name = ../refined-set-2016/3rv4/3rv4_pocket.pdb
REMARK  254 active torsions:
REMARK  status: ('A' for Active; 'I' for Inactive)
REMARK    1  A    between atoms: _1  and  _3
REMARK    2  A    between atoms: _3  and  _4
REMARK    3  A    between atoms: _3  and  _6
REMARK    4  A    between atoms: _6  and  _7
REMARK    5  A    between atoms: _7  and  _8
REMARK    6  A    between atoms: _11  and  _13
REMARK    7  A    between atoms: _13  and  _14
REMARK    8  A    between atoms: _13  and  _16
REMARK    9  A    between atoms: _16  and  _17
REMARK   10  A    between atoms: _17  and  _18
REMARK   11  A    between atoms: _18  and  _19
REMARK   12  A    between atoms: _19  and  _20
REMARK   13  A    between atoms: _24  and  _26
REMARK   14  A    between atoms: _26  and  _27
REMARK   15  A    between atoms: _26  and  _29
REMARK   16  A    between atoms: _29  and  _30
REMARK   17  A    between atoms: _33  and  _35
REMARK   18  A    between atoms: _35  and  _36
REMARK   19  A    between atoms: _35  and  _38
REMARK   20  A    between atoms: _42  and  _43
REMARK   21  A    between atoms: _49  and  _50
REMARK   22  A    between atoms: _55  and  _57
REMARK   23  A    between atoms: _57  and  _58
REMARK   24  A    between atoms: _57  and  _60
REMARK   25  A    between atoms: _63  and  _65
REMARK   26  A    between atoms: _65  and  _66
REMARK   27  A    between atoms: _65  and  _68
REMARK   28  A    between atoms: _68  and  _69
REMARK   29  A    between atoms: _72  and  _74
REMARK   30  A    between atoms: _74  and  _75
REMARK   31  A    between atoms: _74  and  _77
REMARK   32  A    between atoms: _77  and  _78
REMARK   33  A    between atoms: _81  and  _83
REMARK   34  A    between atoms: _83  and  _84
REMARK   35  A    between atoms: _83  and  _86
REMARK   36  A    between atoms: _86  and  _87
REMARK   37  A    between atoms: _87  and  _88
REMARK   38  A    between atoms: _88  and  _89
REMARK   39  A    between atoms: _89  and  _90
REMARK   40  A    between atoms: _94  and  _96
REMARK   41  A    between atoms: _96  and  _97
REMARK   42  A    between atoms: _100  and  _102
REMARK   43  A    between atoms: _102  and  _103
REMARK   44  A    between atoms: _102  and  _105
REMARK   45  A    between atoms: _105  and  _106
REMARK   46  A    between atoms: _108  and  _110
REMARK   47  A    between atoms: _110  and  _111
REMARK   48  A    between atoms: _113  and  _115
REMARK   49  A    between atoms: _115  and  _116
REMARK   50  A    between atoms: _118  and  _120
REMARK   51  A    between atoms: _120  and  _121
REMARK   52  A    between atoms: _123  and  _125
REMARK   53  A    between atoms: _125  and  _126
REMARK   54  A    between atoms: _128  and  _130
REMARK   55  A    between atoms: _130  and  _131
REMARK   56  A    between atoms: _133  and  _135
REMARK   57  A    between atoms: _135  and  _136
REMARK   58  A    between atoms: _135  and  _138
REMARK   59  A    between atoms: _138  and  _139
REMARK   60  A    between atoms: _139  and  _140
REMARK   61  A    between atoms: _140  and  _141
REMARK   62  A    between atoms: _150  and  _152
REMARK   63  A    between atoms: _152  and  _153
REMARK   64  A    between atoms: _155  and  _157
REMARK   65  A    between atoms: _157  and  _158
REMARK   66  A    between atoms: _157  and  _160
REMARK   67  A    between atoms: _160  and  _161
REMARK   68  A    between atoms: _161  and  _162
REMARK   69  A    between atoms: _164  and  _166
REMARK   70  A    between atoms: _166  and  _167
REMARK   71  A    between atoms: _166  and  _169
REMARK   72  A    between atoms: _172  and  _174
REMARK   73  A    between atoms: _174  and  _175
REMARK   74  A    between atoms: _174  and  _177
REMARK   75  A    between atoms: _177  and  _178
REMARK   76  A    between atoms: _184  and  _186
REMARK   77  A    between atoms: _186  and  _187
REMARK   78  A    between atoms: _186  and  _189
REMARK   79  A    between atoms: _189  and  _190
REMARK   80  A    between atoms: _195  and  _196
REMARK   81  A    between atoms: _198  and  _200
REMARK   82  A    between atoms: _200  and  _201
REMARK   83  A    between atoms: _200  and  _203
REMARK   84  A    between atoms: _203  and  _204
REMARK   85  A    between atoms: _204  and  _205
REMARK   86  A    between atoms: _207  and  _209
REMARK   87  A    between atoms: _209  and  _210
REMARK   88  A    between atoms: _209  and  _212
REMARK   89  A    between atoms: _212  and  _213
REMARK   90  A    between atoms: _213  and  _214
REMARK   91  A    between atoms: _217  and  _219
REMARK   92  A    between atoms: _219  and  _220
REMARK   93  A    between atoms: _219  and  _222
REMARK   94  A    between atoms: _222  and  _223
REMARK   95  A    between atoms: _223  and  _224
REMARK   96  A    between atoms: _224  and  _225
REMARK   97  A    between atoms: _225  and  _226
REMARK   98  A    between atoms: _230  and  _232
REMARK   99  A    between atoms: _232  and  _233
REMARK  100  A    between atoms: _232  and  _235
REMARK  101  A    between atoms: _235  and  _236
REMARK  102  A    between atoms: _241  and  _242
REMARK  103  A    between atoms: _244  and  _246
REMARK  104  A    between atoms: _246  and  _247
REMARK  105  A    between atoms: _246  and  _249
REMARK  106  A    between atoms: _249  and  _250
REMARK  107  A    between atoms: _253  and  _255
REMARK  108  A    between atoms: _255  and  _256
REMARK  109  A    between atoms: _255  and  _258
REMARK  110  A    between atoms: _258  and  _259
REMARK  111  A    between atoms: _259  and  _260
REMARK  112  A    between atoms: _263  and  _265
REMARK  113  A    between atoms: _265  and  _266
REMARK  114  A    between atoms: _265  and  _268
REMARK  115  A    between atoms: _268  and  _269
REMARK  116  A    between atoms: _275  and  _276
REMARK  117  A    between atoms: _281  and  _283
REMARK  118  A    between atoms: _283  and  _284
REMARK  119  A    between atoms: _283  and  _286
REMARK  120  A    between atoms: _286  and  _287
REMARK  121  A    between atoms: _287  and  _288
REMARK  122  A    between atoms: _288  and  _289
REMARK  123  A    between atoms: _298  and  _300
REMARK  124  A    between atoms: _300  and  _301
REMARK  125  A    between atoms: _300  and  _303
REMARK  126  A    between atoms: _303  and  _304
REMARK  127  A    between atoms: _309  and  _311
REMARK  128  A    between atoms: _311  and  _312
REMARK  129  A    between atoms: _311  and  _314
REMARK  130  A    between atoms: _317  and  _319
REMARK  131  A    between atoms: _319  and  _320
REMARK  132  A    between atoms: _319  and  _322
REMARK  133  A    between atoms: _322  and  _323
REMARK  134  A    between atoms: _323  and  _324
REMARK  135  A    between atoms: _327  and  _329
REMARK  136  A    between atoms: _329  and  _330
REMARK  137  A    between atoms: _329  and  _332
REMARK  138  A    between atoms: _334  and  _336
REMARK  139  A    between atoms: _336  and  _337
REMARK  140  A    between atoms: _336  and  _339
REMARK  141  A    between atoms: _339  and  _340
REMARK  142  A    between atoms: _342  and  _344
REMARK  143  A    between atoms: _344  and  _345
REMARK  144  A    between atoms: _344  and  _347
REMARK  145  A    between atoms: _347  and  _348
REMARK  146  A    between atoms: _348  and  _349
REMARK  147  A    between atoms: _351  and  _353
REMARK  148  A    between atoms: _353  and  _354
REMARK  149  A    between atoms: _353  and  _356
REMARK  150  A    between atoms: _356  and  _357
REMARK  151  A    between atoms: _357  and  _358
REMARK  152  A    between atoms: _363  and  _365
REMARK  153  A    between atoms: _365  and  _366
REMARK  154  A    between atoms: _365  and  _368
REMARK  155  A    between atoms: _368  and  _369
REMARK  156  A    between atoms: _369  and  _370
REMARK  157  A    between atoms: _370  and  _371
REMARK  158  A    between atoms: _380  and  _382
REMARK  159  A    between atoms: _382  and  _383
REMARK  160  A    between atoms: _382  and  _385
REMARK  161  A    between atoms: _385  and  _386
REMARK  162  A    between atoms: _386  and  _387
REMARK  163  A    between atoms: _387  and  _388
REMARK  164  A    between atoms: _397  and  _399
REMARK  165  A    between atoms: _399  and  _400
REMARK  166  A    between atoms: _399  and  _402
REMARK  167  A    between atoms: _402  and  _403
REMARK  168  A    between atoms: _408  and  _410
REMARK  169  A    between atoms: _410  and  _411
REMARK  170  A    between atoms: _410  and  _413
REMARK  171  A    between atoms: _413  and  _414
REMARK  172  A    between atoms: _414  and  _415
REMARK  173  A    between atoms: _420  and  _422
REMARK  174  A    between atoms: _422  and  _423
REMARK  175  A    between atoms: _422  and  _425
REMARK  176  A    between atoms: _425  and  _426
REMARK  177  A    between atoms: _426  and  _427
REMARK  178  A    between atoms: _427  and  _428
REMARK  179  A    between atoms: _428  and  _429
REMARK  180  A    between atoms: _433  and  _435
REMARK  181  A    between atoms: _435  and  _436
REMARK  182  A    between atoms: _435  and  _438
REMARK  183  A    between atoms: _438  and  _439
REMARK  184  A    between atoms: _439  and  _440
REMARK  185  A    between atoms: _443  and  _445
REMARK  186  A    between atoms: _445  and  _446
REMARK  187  A    between atoms: _445  and  _448
REMARK  188  A    between atoms: _448  and  _449
REMARK  189  A    between atoms: _455  and  _457
REMARK  190  A    between atoms: _457  and  _458
REMARK  191  A    between atoms: _457  and  _460
REMARK  192  A    between atoms: _460  and  _461
REMARK  193  A    between atoms: _464  and  _466
REMARK  194  A    between atoms: _466  and  _467
REMARK  195  A    between atoms: _466  and  _469
REMARK  196  A    between atoms: _469  and  _470
REMARK  197  A    between atoms: _470  and  _471
REMARK  198  A    between atoms: _474  and  _476
REMARK  199  A    between atoms: _476  and  _477
REMARK  200  A    between atoms: _476  and  _479
REMARK  201  A    between atoms: _479  and  _480
REMARK  202  A    between atoms: _485  and  _486
REMARK  203  A    between atoms: _488  and  _490
REMARK  204  A    between atoms: _490  and  _491
REMARK  205  A    between atoms: _490  and  _493
REMARK  206  A    between atoms: _493  and  _494
REMARK  207  A    between atoms: _500  and  _502
REMARK  208  A    between atoms: _502  and  _503
REMARK  209  A    between atoms: _502  and  _505
REMARK  210  A    between atoms: _505  and  _506
REMARK  211  A    between atoms: _509  and  _511
REMARK  212  A    between atoms: _511  and  _512
REMARK  213  A    between atoms: _511  and  _514
REMARK  214  A    between atoms: _514  and  _515
REMARK  215  A    between atoms: _515  and  _516
REMARK  216  A    between atoms: _516  and  _518
REMARK  217  A    between atoms: _518  and  MG_609
REMARK  218  A    between atoms: _519  and  _521
REMARK  219  A    between atoms: _521  and  _522
REMARK  220  A    between atoms: _521  and  _524
REMARK  221  A    between atoms: _524  and  _525
REMARK  222  A    between atoms: _525  and  _526
REMARK  223  A    between atoms: _528  and  _530
REMARK  224  A    between atoms: _530  and  _531
REMARK  225  A    between atoms: _530  and  _533
REMARK  226  A    between atoms: _533  and  _534
REMARK  227  A    between atoms: _539  and  _541
REMARK  228  A    between atoms: _541  and  _542
REMARK  229  A    between atoms: _541  and  _544
REMARK  230  A    between atoms: _544  and  _545
REMARK  231  A    between atoms: _545  and  _546
REMARK  232  A    between atoms: _546  and  _547
REMARK  233  A    between atoms: _556  and  _558
REMARK  234  A    between atoms: _558  and  _559
REMARK  235  A    between atoms: _558  and  _561
REMARK  236  A    between atoms: _561  and  _562
REMARK  237  A    between atoms: _562  and  _563
REMARK  238  A    between atoms: _568  and  _570
REMARK  239  A    between atoms: _570  and  _571
REMARK  240  A    between atoms: _570  and  _573
REMARK  241  A    between atoms: _573  and  _574
REMARK  242  A    between atoms: _579  and  _581
REMARK  243  A    between atoms: _581  and  _582
REMARK  244  A    between atoms: _581  and  _584
REMARK  245  A    between atoms: _584  and  _585
REMARK  246  A    between atoms: _588  and  _590
REMARK  247  A    between atoms: _590  and  _591
REMARK  248  A    between atoms: _590  and  _593
REMARK  249  A    between atoms: _593  and  _594
REMARK  250  A    between atoms: _599  and  _601
REMARK  251  A    between atoms: _601  and  _602
REMARK  252  A    between atoms: _601  and  _604
REMARK  253  A    between atoms: _604  and  _605
REMARK  254  A    between atoms: _605  and  _606
REMARK                            x       y       z     vdW  Elec       q    Type
REMARK                         _______ _______ _______ _____ _____    ______ ____
ROOT
ATOM      1  CA  VAL A   1     -39.418 -17.891  12.583  0.00  0.00    +0.133 C 
ENDROOT
BRANCH   1   2
ATOM      2  CB  VAL A   1     -39.139 -17.613  11.083  0.00  0.00    +0.023 C 
ATOM      3  CG2 VAL A   1     -37.674 -17.265  10.870  0.00  0.00    +0.002 C 
ATOM      4  CG1 VAL A   1     -40.047 -16.514  10.534  0.00  0.00    +0.002 C 
ENDBRANCH   1   2
BRANCH   1   5
ATOM      5  N   VAL A   1     -38.583 -18.994  13.069  0.00  0.00    -0.239 NA
ATOM      6  H   VAL A   1     -38.180 -19.658  12.378  0.00  0.00    +0.142 HD
ENDBRANCH   1   5
BRANCH   1   7
ATOM      7  C   VAL A   1     -40.908 -18.220  12.776  0.00  0.00    +0.224 C 
ATOM      8  O   VAL A   1     -41.337 -19.349  12.512  0.00  0.00    -0.287 OA
ENDBRANCH   1   7
TORSDOF 3
REMARK  Name = ../refined-set-2016/3rv4/3rv4_pocket.pdb
REMARK  254 active torsions:
REMARK  status: ('A' for Active; 'I' for Inactive)
REMARK    1  A    between atoms: _1  and  _3
REMARK    2  A    between atoms: _3  and  _4
REMARK    3  A    between atoms: _3  and  _6
REMARK    4  A    between atoms: _6  and  _7
REMARK    5  A    between atoms: _7  and  _8
REMARK    6  A    between atoms: _11  and  _13
REMARK    7  A    between atoms: _13  and  _14
REMARK    8  A    between atoms: _13  and  _16
REMARK    9  A    between atoms: _16  and  _17
REMARK   10  A    between atoms: _17  and  _18
REMARK   11  A    between atoms: _18  and  _19
REMARK   12  A    between atoms: _19  and  _20
REMARK   13  A    between atoms: _24  and  _26
REMARK   14  A    between atoms: _26  and  _27
REMARK   15  A    between atoms: _26  and  _29
REMARK   16  A    between atoms: _29  and  _30
REMARK   17  A    between atoms: _33  and  _35
REMARK   18  A    between atoms: _35  and  _36
REMARK   19  A    between atoms: _35  and  _38
REMARK   20  A    between atoms: _42  and  _43
REMARK   21  A    between atoms: _49  and  _50
REMARK   22  A    between atoms: _55  and  _57
REMARK   23  A    between atoms: _57  and  _58
REMARK   24  A    between atoms: _57  and  _60
REMARK   25  A    between atoms: _63  and  _65
REMARK   26  A    between atoms: _65  and  _66
REMARK   27  A    between atoms: _65  and  _68
REMARK   28  A    between atoms: _68  and  _69
REMARK   29  A    between atoms: _72  and  _74
REMARK   30  A    between atoms: _74  and  _75
REMARK   31  A    between atoms: _74  and  _77
REMARK   32  A    between atoms: _77  and  _78
REMARK   33  A    between atoms: _81  and  _83
REMARK   34  A    between atoms: _83  and  _84
REMARK   35  A    between atoms: _83  and  _86
REMARK   36  A    between atoms: _86  and  _87
REMARK   37  A    between atoms: _87  and  _88
REMARK   38  A    between atoms: _88  and  _89
REMARK   39  A    between atoms: _89  and  _90
REMARK   40  A    between atoms: _94  and  _96
REMARK   41  A    between atoms: _96  and  _97
REMARK   42  A    between atoms: _100  and  _102
REMARK   43  A    between atoms: _102  and  _103
REMARK   44  A    between atoms: _102  and  _105
REMARK   45  A    between atoms: _105  and  _106
REMARK   46  A    between atoms: _108  and  _110
REMARK   47  A    between atoms: _110  and  _111
REMARK   48  A    between atoms: _113  and  _115
REMARK   49  A    between atoms: _115  and  _116
REMARK   50  A    between atoms: _118  and  _120
REMARK   51  A    between atoms: _120  and  _121
REMARK   52  A    between atoms: _123  and  _125
REMARK   53  A    between atoms: _125  and  _126
REMARK   54  A    between atoms: _128  and  _130
REMARK   55  A    between atoms: _130  and  _131
REMARK   56  A    between atoms: _133  and  _135
REMARK   57  A    between atoms: _135  and  _136
REMARK   58  A    between atoms: _135  and  _138
REMARK   59  A    between atoms: _138  and  _139
REMARK   60  A    between atoms: _139  and  _140
REMARK   61  A    between atoms: _140  and  _141
REMARK   62  A    between atoms: _150  and  _152
REMARK   63  A    between atoms: _152  and  _153
REMARK   64  A    between atoms: _155  and  _157
REMARK   65  A    between atoms: _157  and  _158
REMARK   66  A    between atoms: _157  and  _160
REMARK   67  A    between atoms: _160  and  _161
REMARK   68  A    between atoms: _161  and  _162
REMARK   69  A    between atoms: _164  and  _166
REMARK   70  A    between atoms: _166  and  _167
REMARK   71  A    between atoms: _166  and  _169
REMARK   72  A    between atoms: _172  and  _174
REMARK   73  A    between atoms: _174  and  _175
REMARK   74  A    between atoms: _174  and  _177
REMARK   75  A    between atoms: _177  and  _178
REMARK   76  A    between atoms: _184  and  _186
REMARK   77  A    between atoms: _186  and  _187
REMARK   78  A    between atoms: _186  and  _189
REMARK   79  A    between atoms: _189  and  _190
REMARK   80  A    between atoms: _195  and  _196
REMARK   81  A    between atoms: _198  and  _200
REMARK   82  A    between atoms: _200  and  _201
REMARK   83  A    between atoms: _200  and  _203
REMARK   84  A    between atoms: _203  and  _204
REMARK   85  A    between atoms: _204  and  _205
REMARK   86  A    between atoms: _207  and  _209
REMARK   87  A    between atoms: _209  and  _210
REMARK   88  A    between atoms: _209  and  _212
REMARK   89  A    between atoms: _212  and  _213
REMARK   90  A    between atoms: _213  and  _214
REMARK   91  A    between atoms: _217  and  _219
REMARK   92  A    between atoms: _219  and  _220
REMARK   93  A    between atoms: _219  and  _222
REMARK   94  A    between atoms: _222  and  _223
REMARK   95  A    between atoms: _223  and  _224
REMARK   96  A    between atoms: _224  and  _225
REMARK   97  A    between atoms: _225  and  _226
REMARK   98  A    between atoms: _230  and  _232
REMARK   99  A    between atoms: _232  and  _233
REMARK  100  A    between atoms: _232  and  _235
REMARK  101  A    between atoms: _235  and  _236
REMARK  102  A    between atoms: _241  and  _242
REMARK  103  A    between atoms: _244  and  _246
REMARK  104  A    between atoms: _246  and  _247
REMARK  105  A    between atoms: _246  and  _249
REMARK  106  A    between atoms: _249  and  _250
REMARK  107  A    between atoms: _253  and  _255
REMARK  108  A    between atoms: _255  and  _256
REMARK  109  A    between atoms: _255  and  _258
REMARK  110  A    between atoms: _258  and  _259
REMARK  111  A    between atoms: _259  and  _260
REMARK  112  A    between atoms: _263  and  _265
REMARK  113  A    between atoms: _265  and  _266
REMARK  114  A    between atoms: _265  and  _268
REMARK  115  A    between atoms: _268  and  _269
REMARK  116  A    between atoms: _275  and  _276
REMARK  117  A    between atoms: _281  and  _283
REMARK  118  A    between atoms: _283  and  _284
REMARK  119  A    between atoms: _283  and  _286
REMARK  120  A    between atoms: _286  and  _287
REMARK  121  A    between atoms: _287  and  _288
REMARK  122  A    between atoms: _288  and  _289
REMARK  123  A    between atoms: _298  and  _300
REMARK  124  A    between atoms: _300  and  _301
REMARK  125  A    between atoms: _300  and  _303
REMARK  126  A    between atoms: _303  and  _304
REMARK  127  A    between atoms: _309  and  _311
REMARK  128  A    between atoms: _311  and  _312
REMARK  129  A    between atoms: _311  and  _314
REMARK  130  A    between atoms: _317  and  _319
REMARK  131  A    between atoms: _319  and  _320
REMARK  132  A    between atoms: _319  and  _322
REMARK  133  A    between atoms: _322  and  _323
REMARK  134  A    between atoms: _323  and  _324
REMARK  135  A    between atoms: _327  and  _329
REMARK  136  A    between atoms: _329  and  _330
REMARK  137  A    between atoms: _329  and  _332
REMARK  138  A    between atoms: _334  and  _336
REMARK  139  A    between atoms: _336  and  _337
REMARK  140  A    between atoms: _336  and  _339
REMARK  141  A    between atoms: _339  and  _340
REMARK  142  A    between atoms: _342  and  _344
REMARK  143  A    between atoms: _344  and  _345
REMARK  144  A    between atoms: _344  and  _347
REMARK  145  A    between atoms: _347  and  _348
REMARK  146  A    between atoms: _348  and  _349
REMARK  147  A    between atoms: _351  and  _353
REMARK  148  A    between atoms: _353  and  _354
REMARK  149  A    between atoms: _353  and  _356
REMARK  150  A    between atoms: _356  and  _357
REMARK  151  A    between atoms: _357  and  _358
REMARK  152  A    between atoms: _363  and  _365
REMARK  153  A    between atoms: _365  and  _366
REMARK  154  A    between atoms: _365  and  _368
REMARK  155  A    between atoms: _368  and  _369
REMARK  156  A    between atoms: _369  and  _370
REMARK  157  A    between atoms: _370  and  _371
REMARK  158  A    between atoms: _380  and  _382
REMARK  159  A    between atoms: _382  and  _383
REMARK  160  A    between atoms: _382  and  _385
REMARK  161  A    between atoms: _385  and  _386
REMARK  162  A    between atoms: _386  and  _387
REMARK  163  A    between atoms: _387  and  _388
REMARK  164  A    between atoms: _397  and  _399
REMARK  165  A    between atoms: _399  and  _400
REMARK  166  A    between atoms: _399  and  _402
REMARK  167  A    between atoms: _402  and  _403
REMARK  168  A    between atoms: _408  and  _410
REMARK  169  A    between atoms: _410  and  _411
REMARK  170  A    between atoms: _410  and  _413
REMARK  171  A    between atoms: _413  and  _414
REMARK  172  A    between atoms: _414  and  _415
REMARK  173  A    between atoms: _420  and  _422
REMARK  174  A    between atoms: _422  and  _423
REMARK  175  A    between atoms: _422  and  _425
REMARK  176  A    between atoms: _425  and  _426
REMARK  177  A    between atoms: _426  and  _427
REMARK  178  A    between atoms: _427  and  _428
REMARK  179  A    between atoms: _428  and  _429
REMARK  180  A    between atoms: _433  and  _435
REMARK  181  A    between atoms: _435  and  _436
REMARK  182  A    between atoms: _435  and  _438
REMARK  183  A    between atoms: _438  and  _439
REMARK  184  A    between atoms: _439  and  _440
REMARK  185  A    between atoms: _443  and  _445
REMARK  186  A    between atoms: _445  and  _446
REMARK  187  A    between atoms: _445  and  _448
REMARK  188  A    between atoms: _448  and  _449
REMARK  189  A    between atoms: _455  and  _457
REMARK  190  A    between atoms: _457  and  _458
REMARK  191  A    between atoms: _457  and  _460
REMARK  192  A    between atoms: _460  and  _461
REMARK  193  A    between atoms: _464  and  _466
REMARK  194  A    between atoms: _466  and  _467
REMARK  195  A    between atoms: _466  and  _469
REMARK  196  A    between atoms: _469  and  _470
REMARK  197  A    between atoms: _470  and  _471
REMARK  198  A    between atoms: _474  and  _476
REMARK  199  A    between atoms: _476  and  _477
REMARK  200  A    between atoms: _476  and  _479
REMARK  201  A    between atoms: _479  and  _480
REMARK  202  A    between atoms: _485  and  _486
REMARK  203  A    between atoms: _488  and  _490
REMARK  204  A    between atoms: _490  and  _491
REMARK  205  A    between atoms: _490  and  _493
REMARK  206  A    between atoms: _493  and  _494
REMARK  207  A    between atoms: _500  and  _502
REMARK  208  A    between atoms: _502  and  _503
REMARK  209  A    between atoms: _502  and  _505
REMARK  210  A    between atoms: _505  and  _506
REMARK  211  A    between atoms: _509  and  _511
REMARK  212  A    between atoms: _511  and  _512
REMARK  213  A    between atoms: _511  and  _514
REMARK  214  A    between atoms: _514  and  _515
REMARK  215  A    between atoms: _515  and  _516
REMARK  216  A    between atoms: _516  and  _518
REMARK  217  A    between atoms: _518  and  MG_609
REMARK  218  A    between atoms: _519  and  _521
REMARK  219  A    between atoms: _521  and  _522
REMARK  220  A    between atoms: _521  and  _524
REMARK  221  A    between atoms: _524  and  _525
REMARK  222  A    between atoms: _525  and  _526
REMARK  223  A    between atoms: _528  and  _530
REMARK  224  A    between atoms: _530  and  _531
REMARK  225  A    between atoms: _530  and  _533
REMARK  226  A    between atoms: _533  and  _534
REMARK  227  A    between atoms: _539  and  _541
REMARK  228  A    between atoms: _541  and  _542
REMARK  229  A    between atoms: _541  and  _544
REMARK  230  A    between atoms: _544  and  _545
REMARK  231  A    between atoms: _545  and  _546
REMARK  232  A    between atoms: _546  and  _547
REMARK  233  A    between atoms: _556  and  _558
REMARK  234  A    between atoms: _558  and  _559
REMARK  235  A    between atoms: _558  and  _561
REMARK  236  A    between atoms: _561  and  _562
REMARK  237  A    between atoms: _562  and  _563
REMARK  238  A    between atoms: _568  and  _570
REMARK  239  A    between atoms: _570  and  _571
REMARK  240  A    between atoms: _570  and  _573
REMARK  241  A    between atoms: _573  and  _574
REMARK  242  A    between atoms: _579  and  _581
REMARK  243  A    between atoms: _581  and  _582
REMARK  244  A    between atoms: _581  and  _584
REMARK  245  A    between atoms: _584  and  _585
REMARK  246  A    between atoms: _588  and  _590
REMARK  247  A    between atoms: _590  and  _591
REMARK  248  A    between atoms: _590  and  _593
REMARK  249  A    between atoms: _593  and  _594
REMARK  250  A    between atoms: _599  and  _601
REMARK  251  A    between atoms: _601  and  _602
REMARK  252  A    between atoms: _601  and  _604
REMARK  253  A    between atoms: _604  and  _605
REMARK  254  A    between atoms: _605  and  _606
REMARK                            x       y       z     vdW  Elec       q    Type
REMARK                         _______ _______ _______ _____ _____    ______ ____
ROOT
ATOM      1  CB  PHE A   1     -27.711 -24.521  24.371  0.00  0.00    +0.051 C 
ENDROOT
BRANCH   1   2
ATOM      2  CG  PHE A   1     -27.800 -24.306  22.882  0.00  0.00    -0.020 A 
ATOM      3  CD2 PHE A   1     -28.997 -23.897  22.302  0.00  0.00    -0.004 A 
ATOM      4  CE2 PHE A   1     -29.091 -23.697  20.925  0.00  0.00    -0.000 A 
ATOM      5  CZ  PHE A   1     -27.971 -23.913  20.109  0.00  0.00    -0.000 A 
ATOM      6  CE1 PHE A   1     -26.769 -24.323  20.677  0.00  0.00    -0.000 A 
ATOM      7  CD1 PHE A   1     -26.690 -24.512  22.059  0.00  0.00    -0.004 A 
ENDBRANCH   1   2
BRANCH   1   8
ATOM      8  CA  PHE A   1     -27.373 -25.970  24.779  0.00  0.00    +0.137 C 
BRANCH   8   9
ATOM      9  N   PHE A   1     -28.097 -26.934  23.951  0.00  0.00    -0.239 NA
ATOM     10  H   PHE A   1     -29.127 -27.031  24.056  0.00  0.00    +0.142 HD
ENDBRANCH   8   9
BRANCH   8  11
ATOM     11  C   PHE A   1     -27.611 -26.170  26.270  0.00  0.00    +0.224 C 
ATOM     12  O   PHE A   1     -27.035 -25.453  27.088  0.00  0.00    -0.287 OA
ENDBRANCH   8  11
ENDBRANCH   1   8
TORSDOF 4
REMARK  Name = ../refined-set-2016/3rv4/3rv4_pocket.pdb
REMARK  254 active torsions:
REMARK  status: ('A' for Active; 'I' for Inactive)
REMARK    1  A    between atoms: _1  and  _3
REMARK    2  A    between atoms: _3  and  _4
REMARK    3  A    between atoms: _3  and  _6
REMARK    4  A    between atoms: _6  and  _7
REMARK    5  A    between atoms: _7  and  _8
REMARK    6  A    between atoms: _11  and  _13
REMARK    7  A    between atoms: _13  and  _14
REMARK    8  A    between atoms: _13  and  _16
REMARK    9  A    between atoms: _16  and  _17
REMARK   10  A    between atoms: _17  and  _18
REMARK   11  A    between atoms: _18  and  _19
REMARK   12  A    between atoms: _19  and  _20
REMARK   13  A    between atoms: _24  and  _26
REMARK   14  A    between atoms: _26  and  _27
REMARK   15  A    between atoms: _26  and  _29
REMARK   16  A    between atoms: _29  and  _30
REMARK   17  A    between atoms: _33  and  _35
REMARK   18  A    between atoms: _35  and  _36
REMARK   19  A    between atoms: _35  and  _38
REMARK   20  A    between atoms: _42  and  _43
REMARK   21  A    between atoms: _49  and  _50
REMARK   22  A    between atoms: _55  and  _57
REMARK   23  A    between atoms: _57  and  _58
REMARK   24  A    between atoms: _57  and  _60
REMARK   25  A    between atoms: _63  and  _65
REMARK   26  A    between atoms: _65  and  _66
REMARK   27  A    between atoms: _65  and  _68
REMARK   28  A    between atoms: _68  and  _69
REMARK   29  A    between atoms: _72  and  _74
REMARK   30  A    between atoms: _74  and  _75
REMARK   31  A    between atoms: _74  and  _77
REMARK   32  A    between atoms: _77  and  _78
REMARK   33  A    between atoms: _81  and  _83
REMARK   34  A    between atoms: _83  and  _84
REMARK   35  A    between atoms: _83  and  _86
REMARK   36  A    between atoms: _86  and  _87
REMARK   37  A    between atoms: _87  and  _88
REMARK   38  A    between atoms: _88  and  _89
REMARK   39  A    between atoms: _89  and  _90
REMARK   40  A    between atoms: _94  and  _96
REMARK   41  A    between atoms: _96  and  _97
REMARK   42  A    between atoms: _100  and  _102
REMARK   43  A    between atoms: _102  and  _103
REMARK   44  A    between atoms: _102  and  _105
REMARK   45  A    between atoms: _105  and  _106
REMARK   46  A    between atoms: _108  and  _110
REMARK   47  A    between atoms: _110  and  _111
REMARK   48  A    between atoms: _113  and  _115
REMARK   49  A    between atoms: _115  and  _116
REMARK   50  A    between atoms: _118  and  _120
REMARK   51  A    between atoms: _120  and  _121
REMARK   52  A    between atoms: _123  and  _125
REMARK   53  A    between atoms: _125  and  _126
REMARK   54  A    between atoms: _128  and  _130
REMARK   55  A    between atoms: _130  and  _131
REMARK   56  A    between atoms: _133  and  _135
REMARK   57  A    between atoms: _135  and  _136
REMARK   58  A    between atoms: _135  and  _138
REMARK   59  A    between atoms: _138  and  _139
REMARK   60  A    between atoms: _139  and  _140
REMARK   61  A    between atoms: _140  and  _141
REMARK   62  A    between atoms: _150  and  _152
REMARK   63  A    between atoms: _152  and  _153
REMARK   64  A    between atoms: _155  and  _157
REMARK   65  A    between atoms: _157  and  _158
REMARK   66  A    between atoms: _157  and  _160
REMARK   67  A    between atoms: _160  and  _161
REMARK   68  A    between atoms: _161  and  _162
REMARK   69  A    between atoms: _164  and  _166
REMARK   70  A    between atoms: _166  and  _167
REMARK   71  A    between atoms: _166  and  _169
REMARK   72  A    between atoms: _172  and  _174
REMARK   73  A    between atoms: _174  and  _175
REMARK   74  A    between atoms: _174  and  _177
REMARK   75  A    between atoms: _177  and  _178
REMARK   76  A    between atoms: _184  and  _186
REMARK   77  A    between atoms: _186  and  _187
REMARK   78  A    between atoms: _186  and  _189
REMARK   79  A    between atoms: _189  and  _190
REMARK   80  A    between atoms: _195  and  _196
REMARK   81  A    between atoms: _198  and  _200
REMARK   82  A    between atoms: _200  and  _201
REMARK   83  A    between atoms: _200  and  _203
REMARK   84  A    between atoms: _203  and  _204
REMARK   85  A    between atoms: _204  and  _205
REMARK   86  A    between atoms: _207  and  _209
REMARK   87  A    between atoms: _209  and  _210
REMARK   88  A    between atoms: _209  and  _212
REMARK   89  A    between atoms: _212  and  _213
REMARK   90  A    between atoms: _213  and  _214
REMARK   91  A    between atoms: _217  and  _219
REMARK   92  A    between atoms: _219  and  _220
REMARK   93  A    between atoms: _219  and  _222
REMARK   94  A    between atoms: _222  and  _223
REMARK   95  A    between atoms: _223  and  _224
REMARK   96  A    between atoms: _224  and  _225
REMARK   97  A    between atoms: _225  and  _226
REMARK   98  A    between atoms: _230  and  _232
REMARK   99  A    between atoms: _232  and  _233
REMARK  100  A    between atoms: _232  and  _235
REMARK  101  A    between atoms: _235  and  _236
REMARK  102  A    between atoms: _241  and  _242
REMARK  103  A    between atoms: _244  and  _246
REMARK  104  A    between atoms: _246  and  _247
REMARK  105  A    between atoms: _246  and  _249
REMARK  106  A    between atoms: _249  and  _250
REMARK  107  A    between atoms: _253  and  _255
REMARK  108  A    between atoms: _255  and  _256
REMARK  109  A    between atoms: _255  and  _258
REMARK  110  A    between atoms: _258  and  _259
REMARK  111  A    between atoms: _259  and  _260
REMARK  112  A    between atoms: _263  and  _265
REMARK  113  A    between atoms: _265  and  _266
REMARK  114  A    between atoms: _265  and  _268
REMARK  115  A    between atoms: _268  and  _269
REMARK  116  A    between atoms: _275  and  _276
REMARK  117  A    between atoms: _281  and  _283
REMARK  118  A    between atoms: _283  and  _284
REMARK  119  A    between atoms: _283  and  _286
REMARK  120  A    between atoms: _286  and  _287
REMARK  121  A    between atoms: _287  and  _288
REMARK  122  A    between atoms: _288  and  _289
REMARK  123  A    between atoms: _298  and  _300
REMARK  124  A    between atoms: _300  and  _301
REMARK  125  A    between atoms: _300  and  _303
REMARK  126  A    between atoms: _303  and  _304
REMARK  127  A    between atoms: _309  and  _311
REMARK  128  A    between atoms: _311  and  _312
REMARK  129  A    between atoms: _311  and  _314
REMARK  130  A    between atoms: _317  and  _319
REMARK  131  A    between atoms: _319  and  _320
REMARK  132  A    between atoms: _319  and  _322
REMARK  133  A    between atoms: _322  and  _323
REMARK  134  A    between atoms: _323  and  _324
REMARK  135  A    between atoms: _327  and  _329
REMARK  136  A    between atoms: _329  and  _330
REMARK  137  A    between atoms: _329  and  _332
REMARK  138  A    between atoms: _334  and  _336
REMARK  139  A    between atoms: _336  and  _337
REMARK  140  A    between atoms: _336  and  _339
REMARK  141  A    between atoms: _339  and  _340
REMARK  142  A    between atoms: _342  and  _344
REMARK  143  A    between atoms: _344  and  _345
REMARK  144  A    between atoms: _344  and  _347
REMARK  145  A    between atoms: _347  and  _348
REMARK  146  A    between atoms: _348  and  _349
REMARK  147  A    between atoms: _351  and  _353
REMARK  148  A    between atoms: _353  and  _354
REMARK  149  A    between atoms: _353  and  _356
REMARK  150  A    between atoms: _356  and  _357
REMARK  151  A    between atoms: _357  and  _358
REMARK  152  A    between atoms: _363  and  _365
REMARK  153  A    between atoms: _365  and  _366
REMARK  154  A    between atoms: _365  and  _368
REMARK  155  A    between atoms: _368  and  _369
REMARK  156  A    between atoms: _369  and  _370
REMARK  157  A    between atoms: _370  and  _371
REMARK  158  A    between atoms: _380  and  _382
REMARK  159  A    between atoms: _382  and  _383
REMARK  160  A    between atoms: _382  and  _385
REMARK  161  A    between atoms: _385  and  _386
REMARK  162  A    between atoms: _386  and  _387
REMARK  163  A    between atoms: _387  and  _388
REMARK  164  A    between atoms: _397  and  _399
REMARK  165  A    between atoms: _399  and  _400
REMARK  166  A    between atoms: _399  and  _402
REMARK  167  A    between atoms: _402  and  _403
REMARK  168  A    between atoms: _408  and  _410
REMARK  169  A    between atoms: _410  and  _411
REMARK  170  A    between atoms: _410  and  _413
REMARK  171  A    between atoms: _413  and  _414
REMARK  172  A    between atoms: _414  and  _415
REMARK  173  A    between atoms: _420  and  _422
REMARK  174  A    between atoms: _422  and  _423
REMARK  175  A    between atoms: _422  and  _425
REMARK  176  A    between atoms: _425  and  _426
REMARK  177  A    between atoms: _426  and  _427
REMARK  178  A    between atoms: _427  and  _428
REMARK  179  A    between atoms: _428  and  _429
REMARK  180  A    between atoms: _433  and  _435
REMARK  181  A    between atoms: _435  and  _436
REMARK  182  A    between atoms: _435  and  _438
REMARK  183  A    between atoms: _438  and  _439
REMARK  184  A    between atoms: _439  and  _440
REMARK  185  A    between atoms: _443  and  _445
REMARK  186  A    between atoms: _445  and  _446
REMARK  187  A    between atoms: _445  and  _448
REMARK  188  A    between atoms: _448  and  _449
REMARK  189  A    between atoms: _455  and  _457
REMARK  190  A    between atoms: _457  and  _458
REMARK  191  A    between atoms: _457  and  _460
REMARK  192  A    between atoms: _460  and  _461
REMARK  193  A    between atoms: _464  and  _466
REMARK  194  A    between atoms: _466  and  _467
REMARK  195  A    between atoms: _466  and  _469
REMARK  196  A    between atoms: _469  and  _470
REMARK  197  A    between atoms: _470  and  _471
REMARK  198  A    between atoms: _474  and  _476
REMARK  199  A    between atoms: _476  and  _477
REMARK  200  A    between atoms: _476  and  _479
REMARK  201  A    between atoms: _479  and  _480
REMARK  202  A    between atoms: _485  and  _486
REMARK  203  A    between atoms: _488  and  _490
REMARK  204  A    between atoms: _490  and  _491
REMARK  205  A    between atoms: _490  and  _493
REMARK  206  A    between atoms: _493  and  _494
REMARK  207  A    between atoms: _500  and  _502
REMARK  208  A    between atoms: _502  and  _503
REMARK  209  A    between atoms: _502  and  _505
REMARK  210  A    between atoms: _505  and  _506
REMARK  211  A    between atoms: _509  and  _511
REMARK  212  A    between atoms: _511  and  _512
REMARK  213  A    between atoms: _511  and  _514
REMARK  214  A    between atoms: _514  and  _515
REMARK  215  A    between atoms: _515  and  _516
REMARK  216  A    between atoms: _516  and  _518
REMARK  217  A    between atoms: _518  and  MG_609
REMARK  218  A    between atoms: _519  and  _521
REMARK  219  A    between atoms: _521  and  _522
REMARK  220  A    between atoms: _521  and  _524
REMARK  221  A    between atoms: _524  and  _525
REMARK  222  A    between atoms: _525  and  _526
REMARK  223  A    between atoms: _528  and  _530
REMARK  224  A    between atoms: _530  and  _531
REMARK  225  A    between atoms: _530  and  _533
REMARK  226  A    between atoms: _533  and  _534
REMARK  227  A    between atoms: _539  and  _541
REMARK  228  A    between atoms: _541  and  _542
REMARK  229  A    between atoms: _541  and  _544
REMARK  230  A    between atoms: _544  and  _545
REMARK  231  A    between atoms: _545  and  _546
REMARK  232  A    between atoms: _546  and  _547
REMARK  233  A    between atoms: _556  and  _558
REMARK  234  A    between atoms: _558  and  _559
REMARK  235  A    between atoms: _558  and  _561
REMARK  236  A    between atoms: _561  and  _562
REMARK  237  A    between atoms: _562  and  _563
REMARK  238  A    between atoms: _568  and  _570
REMARK  239  A    between atoms: _570  and  _571
REMARK  240  A    between atoms: _570  and  _573
REMARK  241  A    between atoms: _573  and  _574
REMARK  242  A    between atoms: _579  and  _581
REMARK  243  A    between atoms: _581  and  _582
REMARK  244  A    between atoms: _581  and  _584
REMARK  245  A    between atoms: _584  and  _585
REMARK  246  A    between atoms: _588  and  _590
REMARK  247  A    between atoms: _590  and  _591
REMARK  248  A    between atoms: _590  and  _593
REMARK  249  A    between atoms: _593  and  _594
REMARK  250  A    between atoms: _599  and  _601
REMARK  251  A    between atoms: _601  and  _602
REMARK  252  A    between atoms: _601  and  _604
REMARK  253  A    between atoms: _604  and  _605
REMARK  254  A    between atoms: _605  and  _606
REMARK                            x       y       z     vdW  Elec       q    Type
REMARK                         _______ _______ _______ _____ _____    ______ ____
ROOT
ATOM      1  CA  GLU A   7     -37.006  -9.103   6.447  0.00  0.00    +0.149 C 
ENDROOT
BRANCH   1   4
ATOM      2  C   LEU A   6     -35.999  -9.059   8.672  0.00  0.00    +0.241 C 
ATOM      3  O   LEU A   6     -35.232  -9.992   8.419  0.00  0.00    -0.273 OA
ATOM      4  N   GLU A   7     -36.822  -8.526   7.780  0.00  0.00    -0.297 N 
ATOM      5  H   GLU A   7     -37.354  -7.670   8.035  0.00  0.00    +0.150 HD
BRANCH   2   6
ATOM      6  CA  LEU A   6     -36.078  -8.456  10.063  0.00  0.00    +0.149 C 
BRANCH   6   8
ATOM      7  C   TYR A   5     -37.578  -9.971  11.214  0.00  0.00    +0.241 C 
ATOM      8  N   LEU A   6     -36.347  -9.514  11.026  0.00  0.00    -0.297 N 
ATOM      9  H   LEU A   6     -35.562  -9.918  11.575  0.00  0.00    +0.150 HD
ATOM     10  O   TYR A   5     -38.542  -9.640  10.510  0.00  0.00    -0.273 OA
BRANCH   7  11
ATOM     11  CA  TYR A   5     -37.732 -10.969  12.355  0.00  0.00    +0.153 C 
BRANCH  11  14
ATOM     12  C   LYS A   4     -37.840  -9.633  14.401  0.00  0.00    +0.241 C 
ATOM     13  O   LYS A   4     -36.612  -9.485  14.431  0.00  0.00    -0.273 OA
ATOM     14  N   TYR A   5     -38.459 -10.357  13.469  0.00  0.00    -0.297 N 
ATOM     15  H   TYR A   5     -39.488 -10.491  13.535  0.00  0.00    +0.150 HD
BRANCH  12  16
ATOM     16  CA  LYS A   4     -38.730  -9.023  15.493  0.00  0.00    +0.149 C 
BRANCH  16  18
ATOM     17  C   GLU A   3     -38.022 -10.610  17.175  0.00  0.00    +0.241 C 
ATOM     18  N   LYS A   4     -38.178  -9.347  16.796  0.00  0.00    -0.297 N 
ATOM     19  H   LYS A   4     -37.901  -8.580  17.441  0.00  0.00    +0.150 HD
ATOM     20  O   GLU A   3     -38.459 -11.561  16.526  0.00  0.00    -0.273 OA
BRANCH  17  21
ATOM     21  CA  GLU A   3     -37.274 -10.833  18.480  0.00  0.00    +0.149 C 
BRANCH  21  24
ATOM     22  C   MET A   2     -38.078 -11.889  20.488  0.00  0.00    +0.241 C 
ATOM     23  O   MET A   2     -37.773 -10.931  21.194  0.00  0.00    -0.273 OA
ATOM     24  N   GLU A   3     -37.892 -11.926  19.180  0.00  0.00    -0.297 N 
ATOM     25  H   GLU A   3     -38.199 -12.764  18.646  0.00  0.00    +0.150 HD
BRANCH  22  26
ATOM     26  CA  MET A   2     -38.737 -13.122  21.070  0.00  0.00    +0.149 C 
BRANCH  26  28
ATOM     27  C   TYR A   1     -37.399 -14.540  22.505  0.00  0.00    +0.239 C 
ATOM     28  N   MET A   2     -38.129 -13.444  22.353  0.00  0.00    -0.297 N 
ATOM     29  H   MET A   2     -38.269 -12.805  23.162  0.00  0.00    +0.150 HD
ATOM     30  O   TYR A   1     -37.260 -15.380  21.619  0.00  0.00    -0.274 OA
BRANCH  27  31
ATOM     31  CA  TYR A   1     -36.779 -14.752  23.878  0.00  0.00    +0.149 C 
BRANCH  31  32
ATOM     32  N   TYR A   1     -36.177 -16.071  23.914  0.00  0.00    -0.238 NA
ATOM     33  H   TYR A   1     -35.571 -16.378  23.126  0.00  0.00    +0.142 HD
ENDBRANCH  31  32
BRANCH  31  34
ATOM     34  CB  TYR A   1     -35.774 -13.648  24.252  0.00  0.00    +0.053 C 
BRANCH  34  35
ATOM     35  CG  TYR A   1     -34.545 -13.571  23.365  0.00  0.00    -0.020 A 
ATOM     36  CD2 TYR A   1     -33.514 -14.513  23.469  0.00  0.00    -0.001 A 
ATOM     37  CE2 TYR A   1     -32.386 -14.441  22.646  0.00  0.00    +0.036 A 
ATOM     38  CZ  TYR A   1     -32.279 -13.411  21.719  0.00  0.00    +0.134 A 
ATOM     39  CE1 TYR A   1     -33.286 -12.467  21.604  0.00  0.00    +0.036 A 
ATOM     40  CD1 TYR A   1     -34.415 -12.553  22.420  0.00  0.00    -0.001 A 
BRANCH  38  41
ATOM     41  OH  TYR A   1     -31.171 -13.319  20.901  0.00  0.00    -0.506 OA
ATOM     42  HH  TYR A   1     -31.264 -12.531  20.309  0.00  0.00    +0.292 HD
ENDBRANCH  38  41
ENDBRANCH  34  35
ENDBRANCH  31  34
ENDBRANCH  27  31
ENDBRANCH  26  28
BRANCH  26  43
ATOM     43  CB  MET A   2     -40.237 -12.876  21.215  0.00  0.00    +0.041 C 
BRANCH  43  44
ATOM     44  CG  MET A   2     -40.982 -12.723  19.898  0.00  0.00    +0.060 C 
BRANCH  44  45
ATOM     45  SD  MET A   2     -42.709 -12.241  20.149  0.00  0.00    -0.139 S 
ATOM     46  CE  MET A   2     -43.296 -13.671  21.064  0.00  0.00    +0.069 C 
ENDBRANCH  44  45
ENDBRANCH  43  44
ENDBRANCH  26  43
ENDBRANCH  22  26
ENDBRANCH  21  24
BRANCH  21  47
ATOM     47  CB  GLU A   3     -35.799 -11.166  18.229  0.00  0.00    +0.041 C 
BRANCH  47  48
ATOM     48  CG  GLU A   3     -34.935  -9.938  18.094  0.00  0.00    +0.116 C 
BRANCH  48  49
ATOM     49  CD  GLU A   3     -33.449 -10.225  18.206  0.00  0.00    +0.365 C 
ATOM     50  OE2 GLU A   3     -32.832  -9.718  19.166  0.00  0.00    -0.246 OA
ATOM     51  OE1 GLU A   3     -32.894 -10.910  17.321  0.00  0.00    -0.246 OA
ENDBRANCH  48  49
ENDBRANCH  47  48
ENDBRANCH  21  47
ENDBRANCH  17  21
ENDBRANCH  16  18
BRANCH  16  52
ATOM     52  CB  LYS A   4     -38.846  -7.507  15.338  0.00  0.00    +0.029 C 
BRANCH  52  53
ATOM     53  CG  LYS A   4     -39.582  -7.066  14.073  0.00  0.00    +0.000 C 
BRANCH  53  54
ATOM     54  CD  LYS A   4     -39.824  -5.554  14.084  0.00  0.00    -0.024 C 
BRANCH  54  55
ATOM     55  CE  LYS A   4     -40.586  -5.099  12.823  0.00  0.00    -0.086 C 
BRANCH  55  56
ATOM     56  NZ  LYS A   4     -41.869  -5.846  12.622  0.00  0.00    +0.380 N 
ATOM     57  HZ1 LYS A   4     -42.490  -5.694  13.442  0.00  0.00    -0.089 HD
ATOM     58  HZ2 LYS A   4     -41.666  -6.861  12.523  0.00  0.00    -0.089 HD
ATOM     59  HZ3 LYS A   4     -42.339  -5.500  11.761  0.00  0.00    -0.089 HD
ENDBRANCH  55  56
ENDBRANCH  54  55
ENDBRANCH  53  54
ENDBRANCH  52  53
ENDBRANCH  16  52
ENDBRANCH  12  16
ENDBRANCH  11  14
BRANCH  11  60
ATOM     60  CB  TYR A   5     -38.414 -12.253  11.869  0.00  0.00    +0.055 C 
BRANCH  60  61
ATOM     61  CG  TYR A   5     -37.626 -13.074  10.864  0.00  0.00    -0.020 A 
ATOM     62  CD2 TYR A   5     -36.413 -13.681  11.221  0.00  0.00    -0.001 A 
ATOM     63  CE2 TYR A   5     -35.700 -14.456  10.304  0.00  0.00    +0.036 A 
ATOM     64  CZ  TYR A   5     -36.207 -14.645   9.021  0.00  0.00    +0.134 A 
ATOM     65  CE1 TYR A   5     -37.408 -14.068   8.646  0.00  0.00    +0.036 A 
ATOM     66  CD1 TYR A   5     -38.117 -13.293   9.575  0.00  0.00    -0.001 A 
BRANCH  64  67
ATOM     67  OH  TYR A   5     -35.506 -15.430   8.131  0.00  0.00    -0.506 OA
ATOM     68  HH  TYR A   5     -36.066 -16.201   7.861  0.00  0.00    +0.292 HD
ENDBRANCH  64  67
ENDBRANCH  60  61
ENDBRANCH  11  60
ENDBRANCH   7  11
ENDBRANCH   6   8
BRANCH   6  69
ATOM     69  CB  LEU A   6     -34.812  -7.682  10.441  0.00  0.00    +0.029 C 
BRANCH  69  70
ATOM     70  CG  LEU A   6     -34.850  -7.003  11.822  0.00  0.00    +0.002 C 
ATOM     71  CD2 LEU A   6     -36.116  -6.171  12.028  0.00  0.00    +0.000 C 
ATOM     72  CD1 LEU A   6     -33.605  -6.135  11.997  0.00  0.00    +0.000 C 
ENDBRANCH  69  70
ENDBRANCH   6  69
ENDBRANCH   2   6
ENDBRANCH   1   4
BRANCH   1  73
ATOM     73  C   GLU A   7     -36.139  -8.503   5.328  0.00  0.00    +0.241 C 
ATOM     74  N   ASN A   8     -35.460  -7.395   5.619  0.00  0.00    -0.297 N 
ATOM     75  H   ASN A   8     -35.632  -6.913   6.524  0.00  0.00    +0.150 HD
ATOM     76  O   GLU A   7     -36.082  -9.040   4.217  0.00  0.00    -0.273 OA
BRANCH  74  77
ATOM     77  CA  ASN A   8     -34.468  -6.839   4.680  0.00  0.00    +0.158 C 
BRANCH  77  78
ATOM     78  C   ASN A   8     -33.202  -6.261   5.357  0.00  0.00    +0.244 C 
ATOM     79  N   PRO A   9     -32.569  -7.029   6.281  0.00  0.00    -0.272 N 
ATOM     80  CD  PRO A   9     -32.939  -8.331   6.879  0.00  0.00    +0.094 C 
ATOM     81  CG  PRO A   9     -32.114  -8.381   8.166  0.00  0.00    +0.024 C 
ATOM     82  CB  PRO A   9     -31.442  -7.022   8.314  0.00  0.00    +0.031 C 
ATOM     83  CA  PRO A   9     -31.332  -6.528   6.866  0.00  0.00    +0.152 C 
ATOM     84  O   ASN A   8     -32.790  -5.142   5.041  0.00  0.00    -0.273 OA
BRANCH  83  85
ATOM     85  C   PRO A   9     -30.048  -7.103   6.244  0.00  0.00    +0.241 C 
ATOM     86  N   ARG A  10     -28.948  -6.373   6.395  0.00  0.00    -0.297 N 
ATOM     87  H   ARG A  10     -29.038  -5.387   6.712  0.00  0.00    +0.150 HD
ATOM     88  O   PRO A   9     -30.051  -8.188   5.680  0.00  0.00    -0.273 OA
BRANCH  86  89
ATOM     89  CA  ARG A  10     -27.621  -6.909   6.131  0.00  0.00    +0.149 C 
BRANCH  89  90
ATOM     90  C   ARG A  10     -26.990  -7.234   7.471  0.00  0.00    +0.241 C 
ATOM     91  O   ARG A  10     -27.280  -6.576   8.492  0.00  0.00    -0.273 OA
ATOM     92  N   HIS A  11     -26.134  -8.248   7.483  0.00  0.00    -0.297 N 
ATOM     93  H   HIS A  11     -25.982  -8.808   6.620  0.00  0.00    +0.150 HD
BRANCH  92  94
ATOM     94  CA  HIS A  11     -25.410  -8.577   8.697  0.00  0.00    +0.155 C 
BRANCH  94  95
ATOM     95  C   HIS A  11     -24.125  -7.762   8.690  0.00  0.00    +0.241 C 
ATOM     96  N   VAL A  12     -24.086  -6.740   9.529  0.00  0.00    -0.297 N 
ATOM     97  H   VAL A  12     -24.898  -6.580  10.159  0.00  0.00    +0.150 HD
ATOM     98  O   HIS A  11     -23.207  -8.047   7.915  0.00  0.00    -0.273 OA
BRANCH  96  99
ATOM     99  CA  VAL A  12     -22.955  -5.832   9.605  0.00  0.00    +0.149 C 
BRANCH  99 100
ATOM    100  C   VAL A  12     -22.434  -5.873  11.048  0.00  0.00    +0.241 C 
ATOM    101  O   VAL A  12     -23.160  -5.561  11.996  0.00  0.00    -0.273 OA
ATOM    102  N   GLU A  13     -21.173  -6.262  11.204  0.00  0.00    -0.298 N 
ATOM    103  H   GLU A  13     -20.592  -6.462  10.365  0.00  0.00    +0.150 HD
BRANCH 102 104
ATOM    104  CA  GLU A  13     -20.589  -6.413  12.532  0.00  0.00    +0.137 C 
BRANCH 104 105
ATOM    105  C   GLU A  13     -19.368  -5.527  12.763  0.00  0.00    +0.227 C 
ATOM    106  O   GLU A  13     -18.549  -5.302  11.864  0.00  0.00    -0.286 OA
ENDBRANCH 104 105
BRANCH 104 107
ATOM    107  CB  GLU A  13     -20.237  -7.884  12.797  0.00  0.00    +0.039 C 
BRANCH 107 108
ATOM    108  CG  GLU A  13     -19.157  -8.431  11.892  0.00  0.00    +0.116 C 
BRANCH 108 109
ATOM    109  CD  GLU A  13     -19.035  -9.950  11.965  0.00  0.00    +0.365 C 
ATOM    110  OE2 GLU A  13     -19.997 -10.640  12.358  0.00  0.00    -0.246 OA
ATOM    111  OE1 GLU A  13     -17.961 -10.451  11.614  0.00  0.00    -0.246 OA
ENDBRANCH 108 109
ENDBRANCH 107 108
ENDBRANCH 104 107
ENDBRANCH 102 104
ENDBRANCH  99 100
BRANCH  99 112
ATOM    112  CB  VAL A  12     -23.343  -4.402   9.206  0.00  0.00    +0.027 C 
ATOM    113  CG2 VAL A  12     -22.119  -3.474   9.236  0.00  0.00    +0.002 C 
ATOM    114  CG1 VAL A  12     -24.017  -4.374   7.799  0.00  0.00    +0.002 C 
ENDBRANCH  99 112
ENDBRANCH  96  99
ENDBRANCH  94  95
BRANCH  94 115
ATOM    115  CB  HIS A  11     -25.070 -10.068   8.766  0.00  0.00    +0.076 C 
BRANCH 115 116
ATOM    116  CG  HIS A  11     -24.278 -10.439   9.987  0.00  0.00    +0.082 A 
ATOM    117  ND1 HIS A  11     -24.822 -11.143  11.046  0.00  0.00    -0.227 NA
ATOM    118  CE1 HIS A  11     -23.901 -11.305  11.981  0.00  0.00    +0.199 A 
ATOM    119  NE2 HIS A  11     -22.781 -10.729  11.571  0.00  0.00    -0.221 NA
ATOM    120  CD2 HIS A  11     -22.995 -10.166  10.334  0.00  0.00    +0.115 A 
ENDBRANCH 115 116
ENDBRANCH  94 115
ENDBRANCH  92  94
ENDBRANCH  89  90
BRANCH  89 121
ATOM    121  CB  ARG A  10     -26.763  -5.882   5.377  0.00  0.00    +0.033 C 
BRANCH 121 122
ATOM    122  CG  ARG A  10     -27.211  -5.650   3.941  0.00  0.00    +0.045 C 
BRANCH 122 123
ATOM    123  CD  ARG A  10     -26.717  -4.300   3.431  0.00  0.00    +0.174 C 
BRANCH 123 124
ATOM    124  NE  ARG A  10     -25.258  -4.289   3.403  0.00  0.00    -0.265 N 
ATOM    125  HE  ARG A  10     -24.774  -5.189   3.596  0.00  0.00    +0.259 HD
ATOM    126  CZ  ARG A  10     -24.492  -3.232   3.153  0.00  0.00    +0.342 C 
ATOM    127  NH2 ARG A  10     -23.172  -3.396   3.159  0.00  0.00    -0.292 N 
ATOM    128 HH21 ARG A  10     -22.765  -4.333   3.356  0.00  0.00    +0.255 HD
ATOM    129 HH22 ARG A  10     -22.547  -2.588   2.967  0.00  0.00    +0.255 HD
ATOM    130  NH1 ARG A  10     -25.026  -2.027   2.897  0.00  0.00    -0.292 N 
ATOM    131 HH11 ARG A  10     -26.059  -1.907   2.892  0.00  0.00    +0.255 HD
ATOM    132 HH12 ARG A  10     -24.407  -1.214   2.704  0.00  0.00    +0.255 HD
ENDBRANCH 123 124
ENDBRANCH 122 123
ENDBRANCH 121 122
ENDBRANCH  89 121
ENDBRANCH  86  89
ENDBRANCH  83  85
ENDBRANCH  77  78
BRANCH  77 133
ATOM    133  CB  ASN A   8     -35.115  -5.802   3.737  0.00  0.00    +0.114 C 
BRANCH 133 134
ATOM    134  CG  ASN A   8     -34.173  -5.345   2.609  0.00  0.00    +0.222 C 
ATOM    135  ND2 ASN A   8     -34.315  -4.082   2.193  0.00  0.00    -0.329 N 
ATOM    136 HD21 ASN A   8     -35.012  -3.459   2.649  0.00  0.00    +0.145 HD
ATOM    137 HD22 ASN A   8     -33.729  -3.722   1.413  0.00  0.00    +0.145 HD
ATOM    138  OD1 ASN A   8     -33.362  -6.119   2.100  0.00  0.00    -0.275 OA
ENDBRANCH 133 134
ENDBRANCH  77 133
ENDBRANCH  74  77
ENDBRANCH   1  73
BRANCH   1 139
ATOM    139  CB  GLU A   7     -38.491  -9.077   6.103  0.00  0.00    +0.041 C 
BRANCH 139 140
ATOM    140  CG  GLU A   7     -39.298 -10.024   6.992  0.00  0.00    +0.116 C 
BRANCH 140 141
ATOM    141  CD  GLU A   7     -40.668 -10.307   6.433  0.00  0.00    +0.365 C 
ATOM    142  OE2 GLU A   7     -41.517  -9.403   6.523  0.00  0.00    -0.246 OA
ATOM    143  OE1 GLU A   7     -40.880 -11.434   5.909  0.00  0.00    -0.246 OA
ENDBRANCH 140 141
ENDBRANCH 139 140
ENDBRANCH   1 139
TORSDOF 59
REMARK  Name = ../refined-set-2016/3rv4/3rv4_pocket.pdb
REMARK  254 active torsions:
REMARK  status: ('A' for Active; 'I' for Inactive)
REMARK    1  A    between atoms: _1  and  _3
REMARK    2  A    between atoms: _3  and  _4
REMARK    3  A    between atoms: _3  and  _6
REMARK    4  A    between atoms: _6  and  _7
REMARK    5  A    between atoms: _7  and  _8
REMARK    6  A    between atoms: _11  and  _13
REMARK    7  A    between atoms: _13  and  _14
REMARK    8  A    between atoms: _13  and  _16
REMARK    9  A    between atoms: _16  and  _17
REMARK   10  A    between atoms: _17  and  _18
REMARK   11  A    between atoms: _18  and  _19
REMARK   12  A    between atoms: _19  and  _20
REMARK   13  A    between atoms: _24  and  _26
REMARK   14  A    between atoms: _26  and  _27
REMARK   15  A    between atoms: _26  and  _29
REMARK   16  A    between atoms: _29  and  _30
REMARK   17  A    between atoms: _33  and  _35
REMARK   18  A    between atoms: _35  and  _36
REMARK   19  A    between atoms: _35  and  _38
REMARK   20  A    between atoms: _42  and  _43
REMARK   21  A    between atoms: _49  and  _50
REMARK   22  A    between atoms: _55  and  _57
REMARK   23  A    between atoms: _57  and  _58
REMARK   24  A    between atoms: _57  and  _60
REMARK   25  A    between atoms: _63  and  _65
REMARK   26  A    between atoms: _65  and  _66
REMARK   27  A    between atoms: _65  and  _68
REMARK   28  A    between atoms: _68  and  _69
REMARK   29  A    between atoms: _72  and  _74
REMARK   30  A    between atoms: _74  and  _75
REMARK   31  A    between atoms: _74  and  _77
REMARK   32  A    between atoms: _77  and  _78
REMARK   33  A    between atoms: _81  and  _83
REMARK   34  A    between atoms: _83  and  _84
REMARK   35  A    between atoms: _83  and  _86
REMARK   36  A    between atoms: _86  and  _87
REMARK   37  A    between atoms: _87  and  _88
REMARK   38  A    between atoms: _88  and  _89
REMARK   39  A    between atoms: _89  and  _90
REMARK   40  A    between atoms: _94  and  _96
REMARK   41  A    between atoms: _96  and  _97
REMARK   42  A    between atoms: _100  and  _102
REMARK   43  A    between atoms: _102  and  _103
REMARK   44  A    between atoms: _102  and  _105
REMARK   45  A    between atoms: _105  and  _106
REMARK   46  A    between atoms: _108  and  _110
REMARK   47  A    between atoms: _110  and  _111
REMARK   48  A    between atoms: _113  and  _115
REMARK   49  A    between atoms: _115  and  _116
REMARK   50  A    between atoms: _118  and  _120
REMARK   51  A    between atoms: _120  and  _121
REMARK   52  A    between atoms: _123  and  _125
REMARK   53  A    between atoms: _125  and  _126
REMARK   54  A    between atoms: _128  and  _130
REMARK   55  A    between atoms: _130  and  _131
REMARK   56  A    between atoms: _133  and  _135
REMARK   57  A    between atoms: _135  and  _136
REMARK   58  A    between atoms: _135  and  _138
REMARK   59  A    between atoms: _138  and  _139
REMARK   60  A    between atoms: _139  and  _140
REMARK   61  A    between atoms: _140  and  _141
REMARK   62  A    between atoms: _150  and  _152
REMARK   63  A    between atoms: _152  and  _153
REMARK   64  A    between atoms: _155  and  _157
REMARK   65  A    between atoms: _157  and  _158
REMARK   66  A    between atoms: _157  and  _160
REMARK   67  A    between atoms: _160  and  _161
REMARK   68  A    between atoms: _161  and  _162
REMARK   69  A    between atoms: _164  and  _166
REMARK   70  A    between atoms: _166  and  _167
REMARK   71  A    between atoms: _166  and  _169
REMARK   72  A    between atoms: _172  and  _174
REMARK   73  A    between atoms: _174  and  _175
REMARK   74  A    between atoms: _174  and  _177
REMARK   75  A    between atoms: _177  and  _178
REMARK   76  A    between atoms: _184  and  _186
REMARK   77  A    between atoms: _186  and  _187
REMARK   78  A    between atoms: _186  and  _189
REMARK   79  A    between atoms: _189  and  _190
REMARK   80  A    between atoms: _195  and  _196
REMARK   81  A    between atoms: _198  and  _200
REMARK   82  A    between atoms: _200  and  _201
REMARK   83  A    between atoms: _200  and  _203
REMARK   84  A    between atoms: _203  and  _204
REMARK   85  A    between atoms: _204  and  _205
REMARK   86  A    between atoms: _207  and  _209
REMARK   87  A    between atoms: _209  and  _210
REMARK   88  A    between atoms: _209  and  _212
REMARK   89  A    between atoms: _212  and  _213
REMARK   90  A    between atoms: _213  and  _214
REMARK   91  A    between atoms: _217  and  _219
REMARK   92  A    between atoms: _219  and  _220
REMARK   93  A    between atoms: _219  and  _222
REMARK   94  A    between atoms: _222  and  _223
REMARK   95  A    between atoms: _223  and  _224
REMARK   96  A    between atoms: _224  and  _225
REMARK   97  A    between atoms: _225  and  _226
REMARK   98  A    between atoms: _230  and  _232
REMARK   99  A    between atoms: _232  and  _233
REMARK  100  A    between atoms: _232  and  _235
REMARK  101  A    between atoms: _235  and  _236
REMARK  102  A    between atoms: _241  and  _242
REMARK  103  A    between atoms: _244  and  _246
REMARK  104  A    between atoms: _246  and  _247
REMARK  105  A    between atoms: _246  and  _249
REMARK  106  A    between atoms: _249  and  _250
REMARK  107  A    between atoms: _253  and  _255
REMARK  108  A    between atoms: _255  and  _256
REMARK  109  A    between atoms: _255  and  _258
REMARK  110  A    between atoms: _258  and  _259
REMARK  111  A    between atoms: _259  and  _260
REMARK  112  A    between atoms: _263  and  _265
REMARK  113  A    between atoms: _265  and  _266
REMARK  114  A    between atoms: _265  and  _268
REMARK  115  A    between atoms: _268  and  _269
REMARK  116  A    between atoms: _275  and  _276
REMARK  117  A    between atoms: _281  and  _283
REMARK  118  A    between atoms: _283  and  _284
REMARK  119  A    between atoms: _283  and  _286
REMARK  120  A    between atoms: _286  and  _287
REMARK  121  A    between atoms: _287  and  _288
REMARK  122  A    between atoms: _288  and  _289
REMARK  123  A    between atoms: _298  and  _300
REMARK  124  A    between atoms: _300  and  _301
REMARK  125  A    between atoms: _300  and  _303
REMARK  126  A    between atoms: _303  and  _304
REMARK  127  A    between atoms: _309  and  _311
REMARK  128  A    between atoms: _311  and  _312
REMARK  129  A    between atoms: _311  and  _314
REMARK  130  A    between atoms: _317  and  _319
REMARK  131  A    between atoms: _319  and  _320
REMARK  132  A    between atoms: _319  and  _322
REMARK  133  A    between atoms: _322  and  _323
REMARK  134  A    between atoms: _323  and  _324
REMARK  135  A    between atoms: _327  and  _329
REMARK  136  A    between atoms: _329  and  _330
REMARK  137  A    between atoms: _329  and  _332
REMARK  138  A    between atoms: _334  and  _336
REMARK  139  A    between atoms: _336  and  _337
REMARK  140  A    between atoms: _336  and  _339
REMARK  141  A    between atoms: _339  and  _340
REMARK  142  A    between atoms: _342  and  _344
REMARK  143  A    between atoms: _344  and  _345
REMARK  144  A    between atoms: _344  and  _347
REMARK  145  A    between atoms: _347  and  _348
REMARK  146  A    between atoms: _348  and  _349
REMARK  147  A    between atoms: _351  and  _353
REMARK  148  A    between atoms: _353  and  _354
REMARK  149  A    between atoms: _353  and  _356
REMARK  150  A    between atoms: _356  and  _357
REMARK  151  A    between atoms: _357  and  _358
REMARK  152  A    between atoms: _363  and  _365
REMARK  153  A    between atoms: _365  and  _366
REMARK  154  A    between atoms: _365  and  _368
REMARK  155  A    between atoms: _368  and  _369
REMARK  156  A    between atoms: _369  and  _370
REMARK  157  A    between atoms: _370  and  _371
REMARK  158  A    between atoms: _380  and  _382
REMARK  159  A    between atoms: _382  and  _383
REMARK  160  A    between atoms: _382  and  _385
REMARK  161  A    between atoms: _385  and  _386
REMARK  162  A    between atoms: _386  and  _387
REMARK  163  A    between atoms: _387  and  _388
REMARK  164  A    between atoms: _397  and  _399
REMARK  165  A    between atoms: _399  and  _400
REMARK  166  A    between atoms: _399  and  _402
REMARK  167  A    between atoms: _402  and  _403
REMARK  168  A    between atoms: _408  and  _410
REMARK  169  A    between atoms: _410  and  _411
REMARK  170  A    between atoms: _410  and  _413
REMARK  171  A    between atoms: _413  and  _414
REMARK  172  A    between atoms: _414  and  _415
REMARK  173  A    between atoms: _420  and  _422
REMARK  174  A    between atoms: _422  and  _423
REMARK  175  A    between atoms: _422  and  _425
REMARK  176  A    between atoms: _425  and  _426
REMARK  177  A    between atoms: _426  and  _427
REMARK  178  A    between atoms: _427  and  _428
REMARK  179  A    between atoms: _428  and  _429
REMARK  180  A    between atoms: _433  and  _435
REMARK  181  A    between atoms: _435  and  _436
REMARK  182  A    between atoms: _435  and  _438
REMARK  183  A    between atoms: _438  and  _439
REMARK  184  A    between atoms: _439  and  _440
REMARK  185  A    between atoms: _443  and  _445
REMARK  186  A    between atoms: _445  and  _446
REMARK  187  A    between atoms: _445  and  _448
REMARK  188  A    between atoms: _448  and  _449
REMARK  189  A    between atoms: _455  and  _457
REMARK  190  A    between atoms: _457  and  _458
REMARK  191  A    between atoms: _457  and  _460
REMARK  192  A    between atoms: _460  and  _461
REMARK  193  A    between atoms: _464  and  _466
REMARK  194  A    between atoms: _466  and  _467
REMARK  195  A    between atoms: _466  and  _469
REMARK  196  A    between atoms: _469  and  _470
REMARK  197  A    between atoms: _470  and  _471
REMARK  198  A    between atoms: _474  and  _476
REMARK  199  A    between atoms: _476  and  _477
REMARK  200  A    between atoms: _476  and  _479
REMARK  201  A    between atoms: _479  and  _480
REMARK  202  A    between atoms: _485  and  _486
REMARK  203  A    between atoms: _488  and  _490
REMARK  204  A    between atoms: _490  and  _491
REMARK  205  A    between atoms: _490  and  _493
REMARK  206  A    between atoms: _493  and  _494
REMARK  207  A    between atoms: _500  and  _502
REMARK  208  A    between atoms: _502  and  _503
REMARK  209  A    between atoms: _502  and  _505
REMARK  210  A    between atoms: _505  and  _506
REMARK  211  A    between atoms: _509  and  _511
REMARK  212  A    between atoms: _511  and  _512
REMARK  213  A    between atoms: _511  and  _514
REMARK  214  A    between atoms: _514  and  _515
REMARK  215  A    between atoms: _515  and  _516
REMARK  216  A    between atoms: _516  and  _518
REMARK  217  A    between atoms: _518  and  MG_609
REMARK  218  A    between atoms: _519  and  _521
REMARK  219  A    between atoms: _521  and  _522
REMARK  220  A    between atoms: _521  and  _524
REMARK  221  A    between atoms: _524  and  _525
REMARK  222  A    between atoms: _525  and  _526
REMARK  223  A    between atoms: _528  and  _530
REMARK  224  A    between atoms: _530  and  _531
REMARK  225  A    between atoms: _530  and  _533
REMARK  226  A    between atoms: _533  and  _534
REMARK  227  A    between atoms: _539  and  _541
REMARK  228  A    between atoms: _541  and  _542
REMARK  229  A    between atoms: _541  and  _544
REMARK  230  A    between atoms: _544  and  _545
REMARK  231  A    between atoms: _545  and  _546
REMARK  232  A    between atoms: _546  and  _547
REMARK  233  A    between atoms: _556  and  _558
REMARK  234  A    between atoms: _558  and  _559
REMARK  235  A    between atoms: _558  and  _561
REMARK  236  A    between atoms: _561  and  _562
REMARK  237  A    between atoms: _562  and  _563
REMARK  238  A    between atoms: _568  and  _570
REMARK  239  A    between atoms: _570  and  _571
REMARK  240  A    between atoms: _570  and  _573
REMARK  241  A    between atoms: _573  and  _574
REMARK  242  A    between atoms: _579  and  _581
REMARK  243  A    between atoms: _581  and  _582
REMARK  244  A    between atoms: _581  and  _584
REMARK  245  A    between atoms: _584  and  _585
REMARK  246  A    between atoms: _588  and  _590
REMARK  247  A    between atoms: _590  and  _591
REMARK  248  A    between atoms: _590  and  _593
REMARK  249  A    between atoms: _593  and  _594
REMARK  250  A    between atoms: _599  and  _601
REMARK  251  A    between atoms: _601  and  _602
REMARK  252  A    between atoms: _601  and  _604
REMARK  253  A    between atoms: _604  and  _605
REMARK  254  A    between atoms: _605  and  _606
REMARK                            x       y       z     vdW  Elec       q    Type
REMARK                         _______ _______ _______ _____ _____    ______ ____
ROOT
ATOM      1  C   ARG A   5     -27.244 -21.088   6.292  0.00  0.00    +0.241 C 
ATOM      2  O   ARG A   5     -26.255 -21.302   7.018  0.00  0.00    -0.273 OA
ATOM      3  N   ARG A   6     -28.502 -21.331   6.666  0.00  0.00    -0.297 N 
ATOM      4  H   ARG A   6     -29.270 -21.160   5.986  0.00  0.00    +0.150 HD
ENDROOT
BRANCH   3   5
ATOM      5  CA  ARG A   6     -28.839 -21.832   8.008  0.00  0.00    +0.149 C 
BRANCH   5   6
ATOM      6  C   ARG A   6     -28.204 -20.981   9.119  0.00  0.00    +0.241 C 
ATOM      7  O   ARG A   6     -27.665 -21.511  10.096  0.00  0.00    -0.273 OA
ATOM      8  N   HIS A   7     -28.247 -19.661   8.917  0.00  0.00    -0.297 N 
ATOM      9  H   HIS A   7     -28.657 -19.323   8.023  0.00  0.00    +0.150 HD
BRANCH   8  10
ATOM     10  CA  HIS A   7     -27.758 -18.655   9.865  0.00  0.00    +0.155 C 
BRANCH  10  11
ATOM     11  C   HIS A   7     -26.239 -18.624  10.039  0.00  0.00    +0.241 C 
ATOM     12  O   HIS A   7     -25.726 -17.908  10.904  0.00  0.00    -0.273 OA
ATOM     13  N   GLN A   8     -25.531 -19.375   9.196  0.00  0.00    -0.297 N 
ATOM     14  H   GLN A   8     -26.040 -19.954   8.498  0.00  0.00    +0.150 HD
BRANCH  13  15
ATOM     15  CA  GLN A   8     -24.067 -19.420   9.211  0.00  0.00    +0.149 C 
BRANCH  15  16
ATOM     16  C   GLN A   8     -23.472 -18.694   8.007  0.00  0.00    +0.241 C 
ATOM     17  N   LYS A   9     -22.353 -18.029   8.249  0.00  0.00    -0.298 N 
ATOM     18  H   LYS A   9     -21.935 -18.091   9.199  0.00  0.00    +0.150 HD
ATOM     19  O   GLN A   8     -24.004 -18.755   6.896  0.00  0.00    -0.273 OA
BRANCH  17  20
ATOM     20  CA  LYS A   9     -21.682 -17.216   7.247  0.00  0.00    +0.137 C 
BRANCH  20  21
ATOM     21  C   LYS A   9     -20.904 -18.076   6.261  0.00  0.00    +0.227 C 
ATOM     22  O   LYS A   9     -20.238 -19.044   6.646  0.00  0.00    -0.286 OA
ENDBRANCH  20  21
BRANCH  20  23
ATOM     23  CB  LYS A   9     -20.731 -16.241   7.929  0.00  0.00    +0.028 C 
BRANCH  23  24
ATOM     24  CG  LYS A   9     -21.405 -15.379   9.005  0.00  0.00    -0.000 C 
BRANCH  24  25
ATOM     25  CD  LYS A   9     -20.363 -14.753   9.912  0.00  0.00    -0.024 C 
BRANCH  25  26
ATOM     26  CE  LYS A   9     -21.008 -13.883  10.970  0.00  0.00    -0.086 C 
BRANCH  26  27
ATOM     27  NZ  LYS A   9     -19.975 -13.446  11.991  0.00  0.00    +0.380 N 
ATOM     28  HZ1 LYS A   9     -20.431 -12.850  12.711  0.00  0.00    -0.089 HD
ATOM     29  HZ2 LYS A   9     -19.562 -14.285  12.445  0.00  0.00    -0.089 HD
ATOM     30  HZ3 LYS A   9     -19.226 -12.904  11.514  0.00  0.00    -0.089 HD
ENDBRANCH  26  27
ENDBRANCH  25  26
ENDBRANCH  24  25
ENDBRANCH  23  24
ENDBRANCH  20  23
ENDBRANCH  17  20
ENDBRANCH  15  16
BRANCH  15  31
ATOM     31  CB  GLN A   8     -23.552 -20.863   9.221  0.00  0.00    +0.039 C 
BRANCH  31  32
ATOM     32  CG  GLN A   8     -24.043 -21.715  10.402  0.00  0.00    +0.087 C 
BRANCH  32  33
ATOM     33  CD  GLN A   8     -23.654 -23.191  10.227  0.00  0.00    +0.219 C 
ATOM     34  NE2 GLN A   8     -23.228 -23.827  11.316  0.00  0.00    -0.329 N 
ATOM     35 HE21 GLN A   8     -23.175 -23.324  12.225  0.00  0.00    +0.145 HD
ATOM     36 HE22 GLN A   8     -22.948 -24.827  11.258  0.00  0.00    +0.145 HD
ATOM     37  OE1 GLN A   8     -23.736 -23.746   9.119  0.00  0.00    -0.275 OA
ENDBRANCH  32  33
ENDBRANCH  31  32
ENDBRANCH  15  31
ENDBRANCH  13  15
ENDBRANCH  10  11
BRANCH  10  38
ATOM     38  CB  HIS A   7     -28.479 -18.780  11.223  0.00  0.00    +0.076 C 
BRANCH  38  39
ATOM     39  CG  HIS A   7     -29.966 -18.900  11.101  0.00  0.00    +0.082 A 
ATOM     40  CD2 HIS A   7     -30.826 -19.844  11.550  0.00  0.00    +0.115 A 
ATOM     41  NE2 HIS A   7     -32.088 -19.459  11.162  0.00  0.00    -0.221 NA
ATOM     42  CE1 HIS A   7     -32.004 -18.324  10.489  0.00  0.00    +0.199 A 
ATOM     43  ND1 HIS A   7     -30.734 -17.968  10.436  0.00  0.00    -0.227 NA
ENDBRANCH  38  39
ENDBRANCH  10  38
ENDBRANCH   8  10
ENDBRANCH   5   6
BRANCH   5  44
ATOM     44  CB  ARG A   6     -28.428 -23.307   8.151  0.00  0.00    +0.033 C 
BRANCH  44  45
ATOM     45  CG  ARG A   6     -29.206 -24.263   7.230  0.00  0.00    +0.045 C 
BRANCH  45  46
ATOM     46  CD  ARG A   6     -28.680 -25.697   7.319  0.00  0.00    +0.174 C 
BRANCH  46  47
ATOM     47  NE  ARG A   6     -27.313 -25.738   7.833  0.00  0.00    -0.265 N 
ATOM     48  HE  ARG A   6     -27.191 -25.665   8.863  0.00  0.00    +0.259 HD
ATOM     49  CZ  ARG A   6     -26.209 -25.861   7.097  0.00  0.00    +0.342 C 
ATOM     50  NH2 ARG A   6     -25.018 -25.867   7.708  0.00  0.00    -0.292 N 
ATOM     51 HH21 ARG A   6     -24.964 -25.776   8.743  0.00  0.00    +0.255 HD
ATOM     52 HH22 ARG A   6     -24.147 -25.962   7.148  0.00  0.00    +0.255 HD
ATOM     53  NH1 ARG A   6     -26.285 -25.983   5.769  0.00  0.00    -0.292 N 
ATOM     54 HH11 ARG A   6     -27.213 -25.983   5.299  0.00  0.00    +0.255 HD
ATOM     55 HH12 ARG A   6     -25.416 -26.078   5.205  0.00  0.00    +0.255 HD
ENDBRANCH  46  47
ENDBRANCH  45  46
ENDBRANCH  44  45
ENDBRANCH   5  44
ENDBRANCH   3   5
BRANCH   1  56
ATOM     56  CA  ARG A   5     -27.066 -20.478   4.911  0.00  0.00    +0.149 C 
BRANCH  56  58
ATOM     57  C   GLN A   4     -26.374 -18.182   4.434  0.00  0.00    +0.241 C 
ATOM     58  N   ARG A   5     -26.194 -19.318   5.091  0.00  0.00    -0.297 N 
ATOM     59  H   ARG A   5     -25.402 -19.388   5.761  0.00  0.00    +0.150 HD
ATOM     60  O   GLN A   4     -27.245 -18.021   3.572  0.00  0.00    -0.273 OA
BRANCH  57  61
ATOM     61  CA  GLN A   4     -25.459 -17.046   4.863  0.00  0.00    +0.149 C 
BRANCH  61  64
ATOM     62  C   MET A   3     -24.087 -15.482   3.611  0.00  0.00    +0.241 C 
ATOM     63  O   MET A   3     -23.051 -15.840   4.156  0.00  0.00    -0.273 OA
ATOM     64  N   GLN A   4     -25.266 -16.047   3.834  0.00  0.00    -0.297 N 
ATOM     65  H   GLN A   4     -26.078 -15.763   3.250  0.00  0.00    +0.150 HD
BRANCH  62  66
ATOM     66  CA  MET A   3     -24.088 -14.308   2.647  0.00  0.00    +0.149 C 
BRANCH  66  69
ATOM     67  C   SER A   2     -24.994 -12.579   4.108  0.00  0.00    +0.243 C 
ATOM     68  O   SER A   2     -26.115 -13.089   4.078  0.00  0.00    -0.273 OA
ATOM     69  N   MET A   3     -23.956 -13.074   3.427  0.00  0.00    -0.297 N 
ATOM     70  H   MET A   3     -23.043 -12.577   3.451  0.00  0.00    +0.150 HD
BRANCH  67  71
ATOM     71  CA  SER A   2     -24.789 -11.290   4.909  0.00  0.00    +0.178 C 
BRANCH  71  74
ATOM     72  C   CYS A   1     -22.746 -11.699   6.169  0.00  0.00    +0.239 C 
ATOM     73  O   CYS A   1     -23.194 -12.739   6.655  0.00  0.00    -0.274 OA
ATOM     74  N   SER A   2     -23.411 -10.989   5.268  0.00  0.00    -0.295 N 
ATOM     75  H   SER A   2     -22.933 -10.191   4.803  0.00  0.00    +0.150 HD
BRANCH  72  76
ATOM     76  CA  CYS A   1     -21.363 -11.178   6.555  0.00  0.00    +0.156 C 
BRANCH  76  77
ATOM     77  N   CYS A   1     -21.325  -9.722   6.642  0.00  0.00    -0.237 NA
ATOM     78  H   CYS A   1     -21.948  -9.237   7.318  0.00  0.00    +0.142 HD
ENDBRANCH  76  77
BRANCH  76  79
ATOM     79  CB  CYS A   1     -20.889 -11.780   7.876  0.00  0.00    +0.095 C 
ATOM     80  SG  CYS A   1     -19.417 -10.932   8.517  0.00  0.00    -0.080 S 
ENDBRANCH  76  79
ENDBRANCH  72  76
ENDBRANCH  71  74
BRANCH  71  81
ATOM     81  CB  SER A   2     -25.385 -10.118   4.120  0.00  0.00    +0.166 C 
BRANCH  81  82
ATOM     82  OG  SER A   2     -25.326  -8.920   4.901  0.00  0.00    -0.380 OA
ATOM     83  H   SER A   2     -24.382  -8.718   5.122  0.00  0.00    +0.211 HD
ENDBRANCH  81  82
ENDBRANCH  71  81
ENDBRANCH  67  71
ENDBRANCH  66  69
BRANCH  66  84
ATOM     84  CB  MET A   3     -22.964 -14.457   1.616  0.00  0.00    +0.041 C 
BRANCH  84  85
ATOM     85  CG  MET A   3     -23.198 -13.669   0.329  0.00  0.00    +0.060 C 
BRANCH  85  86
ATOM     86  SD  MET A   3     -24.582 -14.317  -0.660  0.00  0.00    -0.139 S 
ATOM     87  CE  MET A   3     -24.411 -13.263  -2.086  0.00  0.00    +0.069 C 
ENDBRANCH  85  86
ENDBRANCH  84  85
ENDBRANCH  66  84
ENDBRANCH  62  66
ENDBRANCH  61  64
BRANCH  61  88
ATOM     88  CB  GLN A   4     -26.052 -16.397   6.115  0.00  0.00    +0.039 C 
BRANCH  88  89
ATOM     89  CG  GLN A   4     -25.121 -15.440   6.867  0.00  0.00    +0.087 C 
BRANCH  89  90
ATOM     90  CD  GLN A   4     -25.842 -14.723   7.999  0.00  0.00    +0.219 C 
ATOM     91  OE1 GLN A   4     -26.862 -15.204   8.521  0.00  0.00    -0.275 OA
ATOM     92  NE2 GLN A   4     -25.313 -13.578   8.393  0.00  0.00    -0.329 N 
ATOM     93 HE21 GLN A   4     -25.752 -13.042   9.169  0.00  0.00    +0.145 HD
ATOM     94 HE22 GLN A   4     -24.458 -13.213   7.927  0.00  0.00    +0.145 HD
ENDBRANCH  89  90
ENDBRANCH  88  89
ENDBRANCH  61  88
ENDBRANCH  57  61
ENDBRANCH  56  58
BRANCH  56  95
ATOM     95  CB  ARG A   5     -26.437 -21.453   3.879  0.00  0.00    +0.033 C 
BRANCH  95  96
ATOM     96  CG  ARG A   5     -26.501 -22.962   4.157  0.00  0.00    +0.045 C 
BRANCH  96  97
ATOM     97  CD  ARG A   5     -27.941 -23.509   4.097  0.00  0.00    +0.174 C 
BRANCH  97  98
ATOM     98  NE  ARG A   5     -28.013 -24.889   3.606  0.00  0.00    -0.265 N 
ATOM     99  CZ  ARG A   5     -29.105 -25.649   3.619  0.00  0.00    +0.342 C 
ATOM    100  NH2 ARG A   5     -30.259 -25.191   4.116  0.00  0.00    -0.292 N 
ATOM    101 HH21 ARG A   5     -30.313 -24.226   4.501  0.00  0.00    +0.255 HD
ATOM    102 HH22 ARG A   5     -31.102 -25.800   4.118  0.00  0.00    +0.255 HD
ATOM    103  NH1 ARG A   5     -29.043 -26.880   3.123  0.00  0.00    -0.292 N 
ATOM    104 HH11 ARG A   5     -29.889 -27.485   3.127  0.00  0.00    +0.255 HD
ATOM    105 HH12 ARG A   5     -28.149 -27.238   2.731  0.00  0.00    +0.255 HD
ATOM    106  HE  ARG A   5     -27.143 -25.306   3.218  0.00  0.00    +0.259 HD
ENDBRANCH  97  98
ENDBRANCH  96  97
ENDBRANCH  95  96
ENDBRANCH  56  95
ENDBRANCH   1  56
TORSDOF 45
REMARK  Name = ../refined-set-2016/3rv4/3rv4_pocket.pdb
REMARK  254 active torsions:
REMARK  status: ('A' for Active; 'I' for Inactive)
REMARK    1  A    between atoms: _1  and  _3
REMARK    2  A    between atoms: _3  and  _4
REMARK    3  A    between atoms: _3  and  _6
REMARK    4  A    between atoms: _6  and  _7
REMARK    5  A    between atoms: _7  and  _8
REMARK    6  A    between atoms: _11  and  _13
REMARK    7  A    between atoms: _13  and  _14
REMARK    8  A    between atoms: _13  and  _16
REMARK    9  A    between atoms: _16  and  _17
REMARK   10  A    between atoms: _17  and  _18
REMARK   11  A    between atoms: _18  and  _19
REMARK   12  A    between atoms: _19  and  _20
REMARK   13  A    between atoms: _24  and  _26
REMARK   14  A    between atoms: _26  and  _27
REMARK   15  A    between atoms: _26  and  _29
REMARK   16  A    between atoms: _29  and  _30
REMARK   17  A    between atoms: _33  and  _35
REMARK   18  A    between atoms: _35  and  _36
REMARK   19  A    between atoms: _35  and  _38
REMARK   20  A    between atoms: _42  and  _43
REMARK   21  A    between atoms: _49  and  _50
REMARK   22  A    between atoms: _55  and  _57
REMARK   23  A    between atoms: _57  and  _58
REMARK   24  A    between atoms: _57  and  _60
REMARK   25  A    between atoms: _63  and  _65
REMARK   26  A    between atoms: _65  and  _66
REMARK   27  A    between atoms: _65  and  _68
REMARK   28  A    between atoms: _68  and  _69
REMARK   29  A    between atoms: _72  and  _74
REMARK   30  A    between atoms: _74  and  _75
REMARK   31  A    between atoms: _74  and  _77
REMARK   32  A    between atoms: _77  and  _78
REMARK   33  A    between atoms: _81  and  _83
REMARK   34  A    between atoms: _83  and  _84
REMARK   35  A    between atoms: _83  and  _86
REMARK   36  A    between atoms: _86  and  _87
REMARK   37  A    between atoms: _87  and  _88
REMARK   38  A    between atoms: _88  and  _89
REMARK   39  A    between atoms: _89  and  _90
REMARK   40  A    between atoms: _94  and  _96
REMARK   41  A    between atoms: _96  and  _97
REMARK   42  A    between atoms: _100  and  _102
REMARK   43  A    between atoms: _102  and  _103
REMARK   44  A    between atoms: _102  and  _105
REMARK   45  A    between atoms: _105  and  _106
REMARK   46  A    between atoms: _108  and  _110
REMARK   47  A    between atoms: _110  and  _111
REMARK   48  A    between atoms: _113  and  _115
REMARK   49  A    between atoms: _115  and  _116
REMARK   50  A    between atoms: _118  and  _120
REMARK   51  A    between atoms: _120  and  _121
REMARK   52  A    between atoms: _123  and  _125
REMARK   53  A    between atoms: _125  and  _126
REMARK   54  A    between atoms: _128  and  _130
REMARK   55  A    between atoms: _130  and  _131
REMARK   56  A    between atoms: _133  and  _135
REMARK   57  A    between atoms: _135  and  _136
REMARK   58  A    between atoms: _135  and  _138
REMARK   59  A    between atoms: _138  and  _139
REMARK   60  A    between atoms: _139  and  _140
REMARK   61  A    between atoms: _140  and  _141
REMARK   62  A    between atoms: _150  and  _152
REMARK   63  A    between atoms: _152  and  _153
REMARK   64  A    between atoms: _155  and  _157
REMARK   65  A    between atoms: _157  and  _158
REMARK   66  A    between atoms: _157  and  _160
REMARK   67  A    between atoms: _160  and  _161
REMARK   68  A    between atoms: _161  and  _162
REMARK   69  A    between atoms: _164  and  _166
REMARK   70  A    between atoms: _166  and  _167
REMARK   71  A    between atoms: _166  and  _169
REMARK   72  A    between atoms: _172  and  _174
REMARK   73  A    between atoms: _174  and  _175
REMARK   74  A    between atoms: _174  and  _177
REMARK   75  A    between atoms: _177  and  _178
REMARK   76  A    between atoms: _184  and  _186
REMARK   77  A    between atoms: _186  and  _187
REMARK   78  A    between atoms: _186  and  _189
REMARK   79  A    between atoms: _189  and  _190
REMARK   80  A    between atoms: _195  and  _196
REMARK   81  A    between atoms: _198  and  _200
REMARK   82  A    between atoms: _200  and  _201
REMARK   83  A    between atoms: _200  and  _203
REMARK   84  A    between atoms: _203  and  _204
REMARK   85  A    between atoms: _204  and  _205
REMARK   86  A    between atoms: _207  and  _209
REMARK   87  A    between atoms: _209  and  _210
REMARK   88  A    between atoms: _209  and  _212
REMARK   89  A    between atoms: _212  and  _213
REMARK   90  A    between atoms: _213  and  _214
REMARK   91  A    between atoms: _217  and  _219
REMARK   92  A    between atoms: _219  and  _220
REMARK   93  A    between atoms: _219  and  _222
REMARK   94  A    between atoms: _222  and  _223
REMARK   95  A    between atoms: _223  and  _224
REMARK   96  A    between atoms: _224  and  _225
REMARK   97  A    between atoms: _225  and  _226
REMARK   98  A    between atoms: _230  and  _232
REMARK   99  A    between atoms: _232  and  _233
REMARK  100  A    between atoms: _232  and  _235
REMARK  101  A    between atoms: _235  and  _236
REMARK  102  A    between atoms: _241  and  _242
REMARK  103  A    between atoms: _244  and  _246
REMARK  104  A    between atoms: _246  and  _247
REMARK  105  A    between atoms: _246  and  _249
REMARK  106  A    between atoms: _249  and  _250
REMARK  107  A    between atoms: _253  and  _255
REMARK  108  A    between atoms: _255  and  _256
REMARK  109  A    between atoms: _255  and  _258
REMARK  110  A    between atoms: _258  and  _259
REMARK  111  A    between atoms: _259  and  _260
REMARK  112  A    between atoms: _263  and  _265
REMARK  113  A    between atoms: _265  and  _266
REMARK  114  A    between atoms: _265  and  _268
REMARK  115  A    between atoms: _268  and  _269
REMARK  116  A    between atoms: _275  and  _276
REMARK  117  A    between atoms: _281  and  _283
REMARK  118  A    between atoms: _283  and  _284
REMARK  119  A    between atoms: _283  and  _286
REMARK  120  A    between atoms: _286  and  _287
REMARK  121  A    between atoms: _287  and  _288
REMARK  122  A    between atoms: _288  and  _289
REMARK  123  A    between atoms: _298  and  _300
REMARK  124  A    between atoms: _300  and  _301
REMARK  125  A    between atoms: _300  and  _303
REMARK  126  A    between atoms: _303  and  _304
REMARK  127  A    between atoms: _309  and  _311
REMARK  128  A    between atoms: _311  and  _312
REMARK  129  A    between atoms: _311  and  _314
REMARK  130  A    between atoms: _317  and  _319
REMARK  131  A    between atoms: _319  and  _320
REMARK  132  A    between atoms: _319  and  _322
REMARK  133  A    between atoms: _322  and  _323
REMARK  134  A    between atoms: _323  and  _324
REMARK  135  A    between atoms: _327  and  _329
REMARK  136  A    between atoms: _329  and  _330
REMARK  137  A    between atoms: _329  and  _332
REMARK  138  A    between atoms: _334  and  _336
REMARK  139  A    between atoms: _336  and  _337
REMARK  140  A    between atoms: _336  and  _339
REMARK  141  A    between atoms: _339  and  _340
REMARK  142  A    between atoms: _342  and  _344
REMARK  143  A    between atoms: _344  and  _345
REMARK  144  A    between atoms: _344  and  _347
REMARK  145  A    between atoms: _347  and  _348
REMARK  146  A    between atoms: _348  and  _349
REMARK  147  A    between atoms: _351  and  _353
REMARK  148  A    between atoms: _353  and  _354
REMARK  149  A    between atoms: _353  and  _356
REMARK  150  A    between atoms: _356  and  _357
REMARK  151  A    between atoms: _357  and  _358
REMARK  152  A    between atoms: _363  and  _365
REMARK  153  A    between atoms: _365  and  _366
REMARK  154  A    between atoms: _365  and  _368
REMARK  155  A    between atoms: _368  and  _369
REMARK  156  A    between atoms: _369  and  _370
REMARK  157  A    between atoms: _370  and  _371
REMARK  158  A    between atoms: _380  and  _382
REMARK  159  A    between atoms: _382  and  _383
REMARK  160  A    between atoms: _382  and  _385
REMARK  161  A    between atoms: _385  and  _386
REMARK  162  A    between atoms: _386  and  _387
REMARK  163  A    between atoms: _387  and  _388
REMARK  164  A    between atoms: _397  and  _399
REMARK  165  A    between atoms: _399  and  _400
REMARK  166  A    between atoms: _399  and  _402
REMARK  167  A    between atoms: _402  and  _403
REMARK  168  A    between atoms: _408  and  _410
REMARK  169  A    between atoms: _410  and  _411
REMARK  170  A    between atoms: _410  and  _413
REMARK  171  A    between atoms: _413  and  _414
REMARK  172  A    between atoms: _414  and  _415
REMARK  173  A    between atoms: _420  and  _422
REMARK  174  A    between atoms: _422  and  _423
REMARK  175  A    between atoms: _422  and  _425
REMARK  176  A    between atoms: _425  and  _426
REMARK  177  A    between atoms: _426  and  _427
REMARK  178  A    between atoms: _427  and  _428
REMARK  179  A    between atoms: _428  and  _429
REMARK  180  A    between atoms: _433  and  _435
REMARK  181  A    between atoms: _435  and  _436
REMARK  182  A    between atoms: _435  and  _438
REMARK  183  A    between atoms: _438  and  _439
REMARK  184  A    between atoms: _439  and  _440
REMARK  185  A    between atoms: _443  and  _445
REMARK  186  A    between atoms: _445  and  _446
REMARK  187  A    between atoms: _445  and  _448
REMARK  188  A    between atoms: _448  and  _449
REMARK  189  A    between atoms: _455  and  _457
REMARK  190  A    between atoms: _457  and  _458
REMARK  191  A    between atoms: _457  and  _460
REMARK  192  A    between atoms: _460  and  _461
REMARK  193  A    between atoms: _464  and  _466
REMARK  194  A    between atoms: _466  and  _467
REMARK  195  A    between atoms: _466  and  _469
REMARK  196  A    between atoms: _469  and  _470
REMARK  197  A    between atoms: _470  and  _471
REMARK  198  A    between atoms: _474  and  _476
REMARK  199  A    between atoms: _476  and  _477
REMARK  200  A    between atoms: _476  and  _479
REMARK  201  A    between atoms: _479  and  _480
REMARK  202  A    between atoms: _485  and  _486
REMARK  203  A    between atoms: _488  and  _490
REMARK  204  A    between atoms: _490  and  _491
REMARK  205  A    between atoms: _490  and  _493
REMARK  206  A    between atoms: _493  and  _494
REMARK  207  A    between atoms: _500  and  _502
REMARK  208  A    between atoms: _502  and  _503
REMARK  209  A    between atoms: _502  and  _505
REMARK  210  A    between atoms: _505  and  _506
REMARK  211  A    between atoms: _509  and  _511
REMARK  212  A    between atoms: _511  and  _512
REMARK  213  A    between atoms: _511  and  _514
REMARK  214  A    between atoms: _514  and  _515
REMARK  215  A    between atoms: _515  and  _516
REMARK  216  A    between atoms: _516  and  _518
REMARK  217  A    between atoms: _518  and  MG_609
REMARK  218  A    between atoms: _519  and  _521
REMARK  219  A    between atoms: _521  and  _522
REMARK  220  A    between atoms: _521  and  _524
REMARK  221  A    between atoms: _524  and  _525
REMARK  222  A    between atoms: _525  and  _526
REMARK  223  A    between atoms: _528  and  _530
REMARK  224  A    between atoms: _530  and  _531
REMARK  225  A    between atoms: _530  and  _533
REMARK  226  A    between atoms: _533  and  _534
REMARK  227  A    between atoms: _539  and  _541
REMARK  228  A    between atoms: _541  and  _542
REMARK  229  A    between atoms: _541  and  _544
REMARK  230  A    between atoms: _544  and  _545
REMARK  231  A    between atoms: _545  and  _546
REMARK  232  A    between atoms: _546  and  _547
REMARK  233  A    between atoms: _556  and  _558
REMARK  234  A    between atoms: _558  and  _559
REMARK  235  A    between atoms: _558  and  _561
REMARK  236  A    between atoms: _561  and  _562
REMARK  237  A    between atoms: _562  and  _563
REMARK  238  A    between atoms: _568  and  _570
REMARK  239  A    between atoms: _570  and  _571
REMARK  240  A    between atoms: _570  and  _573
REMARK  241  A    between atoms: _573  and  _574
REMARK  242  A    between atoms: _579  and  _581
REMARK  243  A    between atoms: _581  and  _582
REMARK  244  A    between atoms: _581  and  _584
REMARK  245  A    between atoms: _584  and  _585
REMARK  246  A    between atoms: _588  and  _590
REMARK  247  A    between atoms: _590  and  _591
REMARK  248  A    between atoms: _590  and  _593
REMARK  249  A    between atoms: _593  and  _594
REMARK  250  A    between atoms: _599  and  _601
REMARK  251  A    between atoms: _601  and  _602
REMARK  252  A    between atoms: _601  and  _604
REMARK  253  A    between atoms: _604  and  _605
REMARK  254  A    between atoms: _605  and  _606
REMARK                            x       y       z     vdW  Elec       q    Type
REMARK                         _______ _______ _______ _____ _____    ______ ____
ROOT
ATOM      1  CA  PHE A   2     -25.819  -5.974  14.046  0.00  0.00    +0.153 C 
ENDROOT
BRANCH   1   4
ATOM      2  C   GLU A   1     -24.362  -7.432  15.398  0.00  0.00    +0.238 C 
ATOM      3  O   GLU A   1     -25.135  -7.455  16.356  0.00  0.00    -0.274 OA
ATOM      4  N   PHE A   2     -24.608  -6.778  14.265  0.00  0.00    -0.297 N 
ATOM      5  H   PHE A   2     -23.909  -6.839  13.497  0.00  0.00    +0.150 HD
BRANCH   2   6
ATOM      6  CA  GLU A   1     -23.036  -8.181  15.459  0.00  0.00    +0.145 C 
BRANCH   6   7
ATOM      7  N   GLU A   1     -22.326  -7.852  16.691  0.00  0.00    -0.238 NA
ATOM      8  H   GLU A   1     -22.528  -8.383  17.562  0.00  0.00    +0.142 HD
ENDBRANCH   6   7
BRANCH   6   9
ATOM      9  CB  GLU A   1     -23.277  -9.682  15.358  0.00  0.00    +0.038 C 
BRANCH   9  10
ATOM     10  CG  GLU A   1     -22.009 -10.521  15.318  0.00  0.00    +0.116 C 
BRANCH  10  11
ATOM     11  CD  GLU A   1     -22.322 -11.968  15.037  0.00  0.00    +0.365 C 
ATOM     12  OE2 GLU A   1     -23.109 -12.553  15.808  0.00  0.00    -0.246 OA
ATOM     13  OE1 GLU A   1     -21.819 -12.517  14.026  0.00  0.00    -0.246 OA
ENDBRANCH  10  11
ENDBRANCH   9  10
ENDBRANCH   6   9
ENDBRANCH   2   6
ENDBRANCH   1   4
BRANCH   1  14
ATOM     14  C   PHE A   2     -26.566  -6.465  12.820  0.00  0.00    +0.241 C 
ATOM     15  N   LEU A   3     -27.881  -6.286  12.826  0.00  0.00    -0.298 N 
ATOM     16  H   LEU A   3     -28.377  -6.155  13.731  0.00  0.00    +0.150 HD
ATOM     17  O   PHE A   2     -25.965  -7.019  11.897  0.00  0.00    -0.273 OA
BRANCH  15  18
ATOM     18  CA  LEU A   3     -28.632  -6.271  11.594  0.00  0.00    +0.137 C 
BRANCH  18  19
ATOM     19  C   LEU A   3     -28.869  -4.818  11.195  0.00  0.00    +0.227 C 
ATOM     20  O   LEU A   3     -29.258  -3.981  12.009  0.00  0.00    -0.286 OA
ENDBRANCH  18  19
BRANCH  18  21
ATOM     21  CB  LEU A   3     -29.943  -7.046  11.727  0.00  0.00    +0.028 C 
BRANCH  21  22
ATOM     22  CG  LEU A   3     -29.738  -8.517  12.078  0.00  0.00    +0.002 C 
ATOM     23  CD2 LEU A   3     -31.085  -9.176  12.363  0.00  0.00    +0.000 C 
ATOM     24  CD1 LEU A   3     -28.988  -9.227  10.933  0.00  0.00    +0.000 C 
ENDBRANCH  21  22
ENDBRANCH  18  21
ENDBRANCH  15  18
ENDBRANCH   1  14
BRANCH   1  25
ATOM     25  CB  PHE A   2     -25.472  -4.489  13.810  0.00  0.00    +0.055 C 
BRANCH  25  26
ATOM     26  CG  PHE A   2     -24.852  -3.819  14.991  0.00  0.00    -0.020 A 
ATOM     27  CD2 PHE A   2     -25.653  -3.187  15.931  0.00  0.00    -0.004 A 
ATOM     28  CE2 PHE A   2     -25.090  -2.591  17.079  0.00  0.00    -0.000 A 
ATOM     29  CZ  PHE A   2     -23.710  -2.613  17.255  0.00  0.00    -0.000 A 
ATOM     30  CE1 PHE A   2     -22.888  -3.237  16.296  0.00  0.00    -0.000 A 
ATOM     31  CD1 PHE A   2     -23.466  -3.843  15.184  0.00  0.00    -0.004 A 
ENDBRANCH  25  26
ENDBRANCH   1  25
TORSDOF 13
REMARK  Name = ../refined-set-2016/3rv4/3rv4_pocket.pdb
REMARK  254 active torsions:
REMARK  status: ('A' for Active; 'I' for Inactive)
REMARK    1  A    between atoms: _1  and  _3
REMARK    2  A    between atoms: _3  and  _4
REMARK    3  A    between atoms: _3  and  _6
REMARK    4  A    between atoms: _6  and  _7
REMARK    5  A    between atoms: _7  and  _8
REMARK    6  A    between atoms: _11  and  _13
REMARK    7  A    between atoms: _13  and  _14
REMARK    8  A    between atoms: _13  and  _16
REMARK    9  A    between atoms: _16  and  _17
REMARK   10  A    between atoms: _17  and  _18
REMARK   11  A    between atoms: _18  and  _19
REMARK   12  A    between atoms: _19  and  _20
REMARK   13  A    between atoms: _24  and  _26
REMARK   14  A    between atoms: _26  and  _27
REMARK   15  A    between atoms: _26  and  _29
REMARK   16  A    between atoms: _29  and  _30
REMARK   17  A    between atoms: _33  and  _35
REMARK   18  A    between atoms: _35  and  _36
REMARK   19  A    between atoms: _35  and  _38
REMARK   20  A    between atoms: _42  and  _43
REMARK   21  A    between atoms: _49  and  _50
REMARK   22  A    between atoms: _55  and  _57
REMARK   23  A    between atoms: _57  and  _58
REMARK   24  A    between atoms: _57  and  _60
REMARK   25  A    between atoms: _63  and  _65
REMARK   26  A    between atoms: _65  and  _66
REMARK   27  A    between atoms: _65  and  _68
REMARK   28  A    between atoms: _68  and  _69
REMARK   29  A    between atoms: _72  and  _74
REMARK   30  A    between atoms: _74  and  _75
REMARK   31  A    between atoms: _74  and  _77
REMARK   32  A    between atoms: _77  and  _78
REMARK   33  A    between atoms: _81  and  _83
REMARK   34  A    between atoms: _83  and  _84
REMARK   35  A    between atoms: _83  and  _86
REMARK   36  A    between atoms: _86  and  _87
REMARK   37  A    between atoms: _87  and  _88
REMARK   38  A    between atoms: _88  and  _89
REMARK   39  A    between atoms: _89  and  _90
REMARK   40  A    between atoms: _94  and  _96
REMARK   41  A    between atoms: _96  and  _97
REMARK   42  A    between atoms: _100  and  _102
REMARK   43  A    between atoms: _102  and  _103
REMARK   44  A    between atoms: _102  and  _105
REMARK   45  A    between atoms: _105  and  _106
REMARK   46  A    between atoms: _108  and  _110
REMARK   47  A    between atoms: _110  and  _111
REMARK   48  A    between atoms: _113  and  _115
REMARK   49  A    between atoms: _115  and  _116
REMARK   50  A    between atoms: _118  and  _120
REMARK   51  A    between atoms: _120  and  _121
REMARK   52  A    between atoms: _123  and  _125
REMARK   53  A    between atoms: _125  and  _126
REMARK   54  A    between atoms: _128  and  _130
REMARK   55  A    between atoms: _130  and  _131
REMARK   56  A    between atoms: _133  and  _135
REMARK   57  A    between atoms: _135  and  _136
REMARK   58  A    between atoms: _135  and  _138
REMARK   59  A    between atoms: _138  and  _139
REMARK   60  A    between atoms: _139  and  _140
REMARK   61  A    between atoms: _140  and  _141
REMARK   62  A    between atoms: _150  and  _152
REMARK   63  A    between atoms: _152  and  _153
REMARK   64  A    between atoms: _155  and  _157
REMARK   65  A    between atoms: _157  and  _158
REMARK   66  A    between atoms: _157  and  _160
REMARK   67  A    between atoms: _160  and  _161
REMARK   68  A    between atoms: _161  and  _162
REMARK   69  A    between atoms: _164  and  _166
REMARK   70  A    between atoms: _166  and  _167
REMARK   71  A    between atoms: _166  and  _169
REMARK   72  A    between atoms: _172  and  _174
REMARK   73  A    between atoms: _174  and  _175
REMARK   74  A    between atoms: _174  and  _177
REMARK   75  A    between atoms: _177  and  _178
REMARK   76  A    between atoms: _184  and  _186
REMARK   77  A    between atoms: _186  and  _187
REMARK   78  A    between atoms: _186  and  _189
REMARK   79  A    between atoms: _189  and  _190
REMARK   80  A    between atoms: _195  and  _196
REMARK   81  A    between atoms: _198  and  _200
REMARK   82  A    between atoms: _200  and  _201
REMARK   83  A    between atoms: _200  and  _203
REMARK   84  A    between atoms: _203  and  _204
REMARK   85  A    between atoms: _204  and  _205
REMARK   86  A    between atoms: _207  and  _209
REMARK   87  A    between atoms: _209  and  _210
REMARK   88  A    between atoms: _209  and  _212
REMARK   89  A    between atoms: _212  and  _213
REMARK   90  A    between atoms: _213  and  _214
REMARK   91  A    between atoms: _217  and  _219
REMARK   92  A    between atoms: _219  and  _220
REMARK   93  A    between atoms: _219  and  _222
REMARK   94  A    between atoms: _222  and  _223
REMARK   95  A    between atoms: _223  and  _224
REMARK   96  A    between atoms: _224  and  _225
REMARK   97  A    between atoms: _225  and  _226
REMARK   98  A    between atoms: _230  and  _232
REMARK   99  A    between atoms: _232  and  _233
REMARK  100  A    between atoms: _232  and  _235
REMARK  101  A    between atoms: _235  and  _236
REMARK  102  A    between atoms: _241  and  _242
REMARK  103  A    between atoms: _244  and  _246
REMARK  104  A    between atoms: _246  and  _247
REMARK  105  A    between atoms: _246  and  _249
REMARK  106  A    between atoms: _249  and  _250
REMARK  107  A    between atoms: _253  and  _255
REMARK  108  A    between atoms: _255  and  _256
REMARK  109  A    between atoms: _255  and  _258
REMARK  110  A    between atoms: _258  and  _259
REMARK  111  A    between atoms: _259  and  _260
REMARK  112  A    between atoms: _263  and  _265
REMARK  113  A    between atoms: _265  and  _266
REMARK  114  A    between atoms: _265  and  _268
REMARK  115  A    between atoms: _268  and  _269
REMARK  116  A    between atoms: _275  and  _276
REMARK  117  A    between atoms: _281  and  _283
REMARK  118  A    between atoms: _283  and  _284
REMARK  119  A    between atoms: _283  and  _286
REMARK  120  A    between atoms: _286  and  _287
REMARK  121  A    between atoms: _287  and  _288
REMARK  122  A    between atoms: _288  and  _289
REMARK  123  A    between atoms: _298  and  _300
REMARK  124  A    between atoms: _300  and  _301
REMARK  125  A    between atoms: _300  and  _303
REMARK  126  A    between atoms: _303  and  _304
REMARK  127  A    between atoms: _309  and  _311
REMARK  128  A    between atoms: _311  and  _312
REMARK  129  A    between atoms: _311  and  _314
REMARK  130  A    between atoms: _317  and  _319
REMARK  131  A    between atoms: _319  and  _320
REMARK  132  A    between atoms: _319  and  _322
REMARK  133  A    between atoms: _322  and  _323
REMARK  134  A    between atoms: _323  and  _324
REMARK  135  A    between atoms: _327  and  _329
REMARK  136  A    between atoms: _329  and  _330
REMARK  137  A    between atoms: _329  and  _332
REMARK  138  A    between atoms: _334  and  _336
REMARK  139  A    between atoms: _336  and  _337
REMARK  140  A    between atoms: _336  and  _339
REMARK  141  A    between atoms: _339  and  _340
REMARK  142  A    between atoms: _342  and  _344
REMARK  143  A    between atoms: _344  and  _345
REMARK  144  A    between atoms: _344  and  _347
REMARK  145  A    between atoms: _347  and  _348
REMARK  146  A    between atoms: _348  and  _349
REMARK  147  A    between atoms: _351  and  _353
REMARK  148  A    between atoms: _353  and  _354
REMARK  149  A    between atoms: _353  and  _356
REMARK  150  A    between atoms: _356  and  _357
REMARK  151  A    between atoms: _357  and  _358
REMARK  152  A    between atoms: _363  and  _365
REMARK  153  A    between atoms: _365  and  _366
REMARK  154  A    between atoms: _365  and  _368
REMARK  155  A    between atoms: _368  and  _369
REMARK  156  A    between atoms: _369  and  _370
REMARK  157  A    between atoms: _370  and  _371
REMARK  158  A    between atoms: _380  and  _382
REMARK  159  A    between atoms: _382  and  _383
REMARK  160  A    between atoms: _382  and  _385
REMARK  161  A    between atoms: _385  and  _386
REMARK  162  A    between atoms: _386  and  _387
REMARK  163  A    between atoms: _387  and  _388
REMARK  164  A    between atoms: _397  and  _399
REMARK  165  A    between atoms: _399  and  _400
REMARK  166  A    between atoms: _399  and  _402
REMARK  167  A    between atoms: _402  and  _403
REMARK  168  A    between atoms: _408  and  _410
REMARK  169  A    between atoms: _410  and  _411
REMARK  170  A    between atoms: _410  and  _413
REMARK  171  A    between atoms: _413  and  _414
REMARK  172  A    between atoms: _414  and  _415
REMARK  173  A    between atoms: _420  and  _422
REMARK  174  A    between atoms: _422  and  _423
REMARK  175  A    between atoms: _422  and  _425
REMARK  176  A    between atoms: _425  and  _426
REMARK  177  A    between atoms: _426  and  _427
REMARK  178  A    between atoms: _427  and  _428
REMARK  179  A    between atoms: _428  and  _429
REMARK  180  A    between atoms: _433  and  _435
REMARK  181  A    between atoms: _435  and  _436
REMARK  182  A    between atoms: _435  and  _438
REMARK  183  A    between atoms: _438  and  _439
REMARK  184  A    between atoms: _439  and  _440
REMARK  185  A    between atoms: _443  and  _445
REMARK  186  A    between atoms: _445  and  _446
REMARK  187  A    between atoms: _445  and  _448
REMARK  188  A    between atoms: _448  and  _449
REMARK  189  A    between atoms: _455  and  _457
REMARK  190  A    between atoms: _457  and  _458
REMARK  191  A    between atoms: _457  and  _460
REMARK  192  A    between atoms: _460  and  _461
REMARK  193  A    between atoms: _464  and  _466
REMARK  194  A    between atoms: _466  and  _467
REMARK  195  A    between atoms: _466  and  _469
REMARK  196  A    between atoms: _469  and  _470
REMARK  197  A    between atoms: _470  and  _471
REMARK  198  A    between atoms: _474  and  _476
REMARK  199  A    between atoms: _476  and  _477
REMARK  200  A    between atoms: _476  and  _479
REMARK  201  A    between atoms: _479  and  _480
REMARK  202  A    between atoms: _485  and  _486
REMARK  203  A    between atoms: _488  and  _490
REMARK  204  A    between atoms: _490  and  _491
REMARK  205  A    between atoms: _490  and  _493
REMARK  206  A    between atoms: _493  and  _494
REMARK  207  A    between atoms: _500  and  _502
REMARK  208  A    between atoms: _502  and  _503
REMARK  209  A    between atoms: _502  and  _505
REMARK  210  A    between atoms: _505  and  _506
REMARK  211  A    between atoms: _509  and  _511
REMARK  212  A    between atoms: _511  and  _512
REMARK  213  A    between atoms: _511  and  _514
REMARK  214  A    between atoms: _514  and  _515
REMARK  215  A    between atoms: _515  and  _516
REMARK  216  A    between atoms: _516  and  _518
REMARK  217  A    between atoms: _518  and  MG_609
REMARK  218  A    between atoms: _519  and  _521
REMARK  219  A    between atoms: _521  and  _522
REMARK  220  A    between atoms: _521  and  _524
REMARK  221  A    between atoms: _524  and  _525
REMARK  222  A    between atoms: _525  and  _526
REMARK  223  A    between atoms: _528  and  _530
REMARK  224  A    between atoms: _530  and  _531
REMARK  225  A    between atoms: _530  and  _533
REMARK  226  A    between atoms: _533  and  _534
REMARK  227  A    between atoms: _539  and  _541
REMARK  228  A    between atoms: _541  and  _542
REMARK  229  A    between atoms: _541  and  _544
REMARK  230  A    between atoms: _544  and  _545
REMARK  231  A    between atoms: _545  and  _546
REMARK  232  A    between atoms: _546  and  _547
REMARK  233  A    between atoms: _556  and  _558
REMARK  234  A    between atoms: _558  and  _559
REMARK  235  A    between atoms: _558  and  _561
REMARK  236  A    between atoms: _561  and  _562
REMARK  237  A    between atoms: _562  and  _563
REMARK  238  A    between atoms: _568  and  _570
REMARK  239  A    between atoms: _570  and  _571
REMARK  240  A    between atoms: _570  and  _573
REMARK  241  A    between atoms: _573  and  _574
REMARK  242  A    between atoms: _579  and  _581
REMARK  243  A    between atoms: _581  and  _582
REMARK  244  A    between atoms: _581  and  _584
REMARK  245  A    between atoms: _584  and  _585
REMARK  246  A    between atoms: _588  and  _590
REMARK  247  A    between atoms: _590  and  _591
REMARK  248  A    between atoms: _590  and  _593
REMARK  249  A    between atoms: _593  and  _594
REMARK  250  A    between atoms: _599  and  _601
REMARK  251  A    between atoms: _601  and  _602
REMARK  252  A    between atoms: _601  and  _604
REMARK  253  A    between atoms: _604  and  _605
REMARK  254  A    between atoms: _605  and  _606
REMARK                            x       y       z     vdW  Elec       q    Type
REMARK                         _______ _______ _______ _____ _____    ______ ____
ROOT
ATOM      1  CA  GLU A   1     -32.047  -2.346   7.765  0.00  0.00    +0.134 C 
ENDROOT
BRANCH   1   2
ATOM      2  N   GLU A   1     -30.870  -2.420   8.639  0.00  0.00    -0.239 NA
ATOM      3  H   GLU A   1     -30.871  -1.865   9.518  0.00  0.00    +0.142 HD
ENDBRANCH   1   2
BRANCH   1   4
ATOM      4  C   GLU A   1     -32.593  -0.920   7.722  0.00  0.00    +0.224 C 
ATOM      5  O   GLU A   1     -32.738  -0.258   8.766  0.00  0.00    -0.287 OA
ENDBRANCH   1   4
BRANCH   1   6
ATOM      6  CB  GLU A   1     -33.140  -3.310   8.230  0.00  0.00    +0.037 C 
BRANCH   6   7
ATOM      7  CG  GLU A   1     -34.417  -3.246   7.376  0.00  0.00    +0.116 C 
BRANCH   7   8
ATOM      8  CD  GLU A   1     -35.434  -4.336   7.715  0.00  0.00    +0.365 C 
ATOM      9  OE2 GLU A   1     -36.611  -4.003   7.992  0.00  0.00    -0.246 OA
ATOM     10  OE1 GLU A   1     -35.065  -5.520   7.710  0.00  0.00    -0.246 OA
ENDBRANCH   7   8
ENDBRANCH   6   7
ENDBRANCH   1   6
TORSDOF 5
REMARK  Name = ../refined-set-2016/3rv4/3rv4_pocket.pdb
REMARK  254 active torsions:
REMARK  status: ('A' for Active; 'I' for Inactive)
REMARK    1  A    between atoms: _1  and  _3
REMARK    2  A    between atoms: _3  and  _4
REMARK    3  A    between atoms: _3  and  _6
REMARK    4  A    between atoms: _6  and  _7
REMARK    5  A    between atoms: _7  and  _8
REMARK    6  A    between atoms: _11  and  _13
REMARK    7  A    between atoms: _13  and  _14
REMARK    8  A    between atoms: _13  and  _16
REMARK    9  A    between atoms: _16  and  _17
REMARK   10  A    between atoms: _17  and  _18
REMARK   11  A    between atoms: _18  and  _19
REMARK   12  A    between atoms: _19  and  _20
REMARK   13  A    between atoms: _24  and  _26
REMARK   14  A    between atoms: _26  and  _27
REMARK   15  A    between atoms: _26  and  _29
REMARK   16  A    between atoms: _29  and  _30
REMARK   17  A    between atoms: _33  and  _35
REMARK   18  A    between atoms: _35  and  _36
REMARK   19  A    between atoms: _35  and  _38
REMARK   20  A    between atoms: _42  and  _43
REMARK   21  A    between atoms: _49  and  _50
REMARK   22  A    between atoms: _55  and  _57
REMARK   23  A    between atoms: _57  and  _58
REMARK   24  A    between atoms: _57  and  _60
REMARK   25  A    between atoms: _63  and  _65
REMARK   26  A    between atoms: _65  and  _66
REMARK   27  A    between atoms: _65  and  _68
REMARK   28  A    between atoms: _68  and  _69
REMARK   29  A    between atoms: _72  and  _74
REMARK   30  A    between atoms: _74  and  _75
REMARK   31  A    between atoms: _74  and  _77
REMARK   32  A    between atoms: _77  and  _78
REMARK   33  A    between atoms: _81  and  _83
REMARK   34  A    between atoms: _83  and  _84
REMARK   35  A    between atoms: _83  and  _86
REMARK   36  A    between atoms: _86  and  _87
REMARK   37  A    between atoms: _87  and  _88
REMARK   38  A    between atoms: _88  and  _89
REMARK   39  A    between atoms: _89  and  _90
REMARK   40  A    between atoms: _94  and  _96
REMARK   41  A    between atoms: _96  and  _97
REMARK   42  A    between atoms: _100  and  _102
REMARK   43  A    between atoms: _102  and  _103
REMARK   44  A    between atoms: _102  and  _105
REMARK   45  A    between atoms: _105  and  _106
REMARK   46  A    between atoms: _108  and  _110
REMARK   47  A    between atoms: _110  and  _111
REMARK   48  A    between atoms: _113  and  _115
REMARK   49  A    between atoms: _115  and  _116
REMARK   50  A    between atoms: _118  and  _120
REMARK   51  A    between atoms: _120  and  _121
REMARK   52  A    between atoms: _123  and  _125
REMARK   53  A    between atoms: _125  and  _126
REMARK   54  A    between atoms: _128  and  _130
REMARK   55  A    between atoms: _130  and  _131
REMARK   56  A    between atoms: _133  and  _135
REMARK   57  A    between atoms: _135  and  _136
REMARK   58  A    between atoms: _135  and  _138
REMARK   59  A    between atoms: _138  and  _139
REMARK   60  A    between atoms: _139  and  _140
REMARK   61  A    between atoms: _140  and  _141
REMARK   62  A    between atoms: _150  and  _152
REMARK   63  A    between atoms: _152  and  _153
REMARK   64  A    between atoms: _155  and  _157
REMARK   65  A    between atoms: _157  and  _158
REMARK   66  A    between atoms: _157  and  _160
REMARK   67  A    between atoms: _160  and  _161
REMARK   68  A    between atoms: _161  and  _162
REMARK   69  A    between atoms: _164  and  _166
REMARK   70  A    between atoms: _166  and  _167
REMARK   71  A    between atoms: _166  and  _169
REMARK   72  A    between atoms: _172  and  _174
REMARK   73  A    between atoms: _174  and  _175
REMARK   74  A    between atoms: _174  and  _177
REMARK   75  A    between atoms: _177  and  _178
REMARK   76  A    between atoms: _184  and  _186
REMARK   77  A    between atoms: _186  and  _187
REMARK   78  A    between atoms: _186  and  _189
REMARK   79  A    between atoms: _189  and  _190
REMARK   80  A    between atoms: _195  and  _196
REMARK   81  A    between atoms: _198  and  _200
REMARK   82  A    between atoms: _200  and  _201
REMARK   83  A    between atoms: _200  and  _203
REMARK   84  A    between atoms: _203  and  _204
REMARK   85  A    between atoms: _204  and  _205
REMARK   86  A    between atoms: _207  and  _209
REMARK   87  A    between atoms: _209  and  _210
REMARK   88  A    between atoms: _209  and  _212
REMARK   89  A    between atoms: _212  and  _213
REMARK   90  A    between atoms: _213  and  _214
REMARK   91  A    between atoms: _217  and  _219
REMARK   92  A    between atoms: _219  and  _220
REMARK   93  A    between atoms: _219  and  _222
REMARK   94  A    between atoms: _222  and  _223
REMARK   95  A    between atoms: _223  and  _224
REMARK   96  A    between atoms: _224  and  _225
REMARK   97  A    between atoms: _225  and  _226
REMARK   98  A    between atoms: _230  and  _232
REMARK   99  A    between atoms: _232  and  _233
REMARK  100  A    between atoms: _232  and  _235
REMARK  101  A    between atoms: _235  and  _236
REMARK  102  A    between atoms: _241  and  _242
REMARK  103  A    between atoms: _244  and  _246
REMARK  104  A    between atoms: _246  and  _247
REMARK  105  A    between atoms: _246  and  _249
REMARK  106  A    between atoms: _249  and  _250
REMARK  107  A    between atoms: _253  and  _255
REMARK  108  A    between atoms: _255  and  _256
REMARK  109  A    between atoms: _255  and  _258
REMARK  110  A    between atoms: _258  and  _259
REMARK  111  A    between atoms: _259  and  _260
REMARK  112  A    between atoms: _263  and  _265
REMARK  113  A    between atoms: _265  and  _266
REMARK  114  A    between atoms: _265  and  _268
REMARK  115  A    between atoms: _268  and  _269
REMARK  116  A    between atoms: _275  and  _276
REMARK  117  A    between atoms: _281  and  _283
REMARK  118  A    between atoms: _283  and  _284
REMARK  119  A    between atoms: _283  and  _286
REMARK  120  A    between atoms: _286  and  _287
REMARK  121  A    between atoms: _287  and  _288
REMARK  122  A    between atoms: _288  and  _289
REMARK  123  A    between atoms: _298  and  _300
REMARK  124  A    between atoms: _300  and  _301
REMARK  125  A    between atoms: _300  and  _303
REMARK  126  A    between atoms: _303  and  _304
REMARK  127  A    between atoms: _309  and  _311
REMARK  128  A    between atoms: _311  and  _312
REMARK  129  A    between atoms: _311  and  _314
REMARK  130  A    between atoms: _317  and  _319
REMARK  131  A    between atoms: _319  and  _320
REMARK  132  A    between atoms: _319  and  _322
REMARK  133  A    between atoms: _322  and  _323
REMARK  134  A    between atoms: _323  and  _324
REMARK  135  A    between atoms: _327  and  _329
REMARK  136  A    between atoms: _329  and  _330
REMARK  137  A    between atoms: _329  and  _332
REMARK  138  A    between atoms: _334  and  _336
REMARK  139  A    between atoms: _336  and  _337
REMARK  140  A    between atoms: _336  and  _339
REMARK  141  A    between atoms: _339  and  _340
REMARK  142  A    between atoms: _342  and  _344
REMARK  143  A    between atoms: _344  and  _345
REMARK  144  A    between atoms: _344  and  _347
REMARK  145  A    between atoms: _347  and  _348
REMARK  146  A    between atoms: _348  and  _349
REMARK  147  A    between atoms: _351  and  _353
REMARK  148  A    between atoms: _353  and  _354
REMARK  149  A    between atoms: _353  and  _356
REMARK  150  A    between atoms: _356  and  _357
REMARK  151  A    between atoms: _357  and  _358
REMARK  152  A    between atoms: _363  and  _365
REMARK  153  A    between atoms: _365  and  _366
REMARK  154  A    between atoms: _365  and  _368
REMARK  155  A    between atoms: _368  and  _369
REMARK  156  A    between atoms: _369  and  _370
REMARK  157  A    between atoms: _370  and  _371
REMARK  158  A    between atoms: _380  and  _382
REMARK  159  A    between atoms: _382  and  _383
REMARK  160  A    between atoms: _382  and  _385
REMARK  161  A    between atoms: _385  and  _386
REMARK  162  A    between atoms: _386  and  _387
REMARK  163  A    between atoms: _387  and  _388
REMARK  164  A    between atoms: _397  and  _399
REMARK  165  A    between atoms: _399  and  _400
REMARK  166  A    between atoms: _399  and  _402
REMARK  167  A    between atoms: _402  and  _403
REMARK  168  A    between atoms: _408  and  _410
REMARK  169  A    between atoms: _410  and  _411
REMARK  170  A    between atoms: _410  and  _413
REMARK  171  A    between atoms: _413  and  _414
REMARK  172  A    between atoms: _414  and  _415
REMARK  173  A    between atoms: _420  and  _422
REMARK  174  A    between atoms: _422  and  _423
REMARK  175  A    between atoms: _422  and  _425
REMARK  176  A    between atoms: _425  and  _426
REMARK  177  A    between atoms: _426  and  _427
REMARK  178  A    between atoms: _427  and  _428
REMARK  179  A    between atoms: _428  and  _429
REMARK  180  A    between atoms: _433  and  _435
REMARK  181  A    between atoms: _435  and  _436
REMARK  182  A    between atoms: _435  and  _438
REMARK  183  A    between atoms: _438  and  _439
REMARK  184  A    between atoms: _439  and  _440
REMARK  185  A    between atoms: _443  and  _445
REMARK  186  A    between atoms: _445  and  _446
REMARK  187  A    between atoms: _445  and  _448
REMARK  188  A    between atoms: _448  and  _449
REMARK  189  A    between atoms: _455  and  _457
REMARK  190  A    between atoms: _457  and  _458
REMARK  191  A    between atoms: _457  and  _460
REMARK  192  A    between atoms: _460  and  _461
REMARK  193  A    between atoms: _464  and  _466
REMARK  194  A    between atoms: _466  and  _467
REMARK  195  A    between atoms: _466  and  _469
REMARK  196  A    between atoms: _469  and  _470
REMARK  197  A    between atoms: _470  and  _471
REMARK  198  A    between atoms: _474  and  _476
REMARK  199  A    between atoms: _476  and  _477
REMARK  200  A    between atoms: _476  and  _479
REMARK  201  A    between atoms: _479  and  _480
REMARK  202  A    between atoms: _485  and  _486
REMARK  203  A    between atoms: _488  and  _490
REMARK  204  A    between atoms: _490  and  _491
REMARK  205  A    between atoms: _490  and  _493
REMARK  206  A    between atoms: _493  and  _494
REMARK  207  A    between atoms: _500  and  _502
REMARK  208  A    between atoms: _502  and  _503
REMARK  209  A    between atoms: _502  and  _505
REMARK  210  A    between atoms: _505  and  _506
REMARK  211  A    between atoms: _509  and  _511
REMARK  212  A    between atoms: _511  and  _512
REMARK  213  A    between atoms: _511  and  _514
REMARK  214  A    between atoms: _514  and  _515
REMARK  215  A    between atoms: _515  and  _516
REMARK  216  A    between atoms: _516  and  _518
REMARK  217  A    between atoms: _518  and  MG_609
REMARK  218  A    between atoms: _519  and  _521
REMARK  219  A    between atoms: _521  and  _522
REMARK  220  A    between atoms: _521  and  _524
REMARK  221  A    between atoms: _524  and  _525
REMARK  222  A    between atoms: _525  and  _526
REMARK  223  A    between atoms: _528  and  _530
REMARK  224  A    between atoms: _530  and  _531
REMARK  225  A    between atoms: _530  and  _533
REMARK  226  A    between atoms: _533  and  _534
REMARK  227  A    between atoms: _539  and  _541
REMARK  228  A    between atoms: _541  and  _542
REMARK  229  A    between atoms: _541  and  _544
REMARK  230  A    between atoms: _544  and  _545
REMARK  231  A    between atoms: _545  and  _546
REMARK  232  A    between atoms: _546  and  _547
REMARK  233  A    between atoms: _556  and  _558
REMARK  234  A    between atoms: _558  and  _559
REMARK  235  A    between atoms: _558  and  _561
REMARK  236  A    between atoms: _561  and  _562
REMARK  237  A    between atoms: _562  and  _563
REMARK  238  A    between atoms: _568  and  _570
REMARK  239  A    between atoms: _570  and  _571
REMARK  240  A    between atoms: _570  and  _573
REMARK  241  A    between atoms: _573  and  _574
REMARK  242  A    between atoms: _579  and  _581
REMARK  243  A    between atoms: _581  and  _582
REMARK  244  A    between atoms: _581  and  _584
REMARK  245  A    between atoms: _584  and  _585
REMARK  246  A    between atoms: _588  and  _590
REMARK  247  A    between atoms: _590  and  _591
REMARK  248  A    between atoms: _590  and  _593
REMARK  249  A    between atoms: _593  and  _594
REMARK  250  A    between atoms: _599  and  _601
REMARK  251  A    between atoms: _601  and  _602
REMARK  252  A    between atoms: _601  and  _604
REMARK  253  A    between atoms: _604  and  _605
REMARK  254  A    between atoms: _605  and  _606
REMARK                            x       y       z     vdW  Elec       q    Type
REMARK                         _______ _______ _______ _____ _____    ______ ____
ROOT
ATOM      1  C   ILE A   3     -27.470  -9.828  18.911  0.00  0.00    +0.000 C 
ATOM      2  O   ILE A   3     -28.062 -10.518  19.747  0.00  0.00    +0.000 OA
ATOM      3  N   UNK A   4     -26.142  -9.718  18.852  0.00  0.00    +0.000 N 
ATOM      4  H   UNK A   4     -25.719  -9.146  18.093  0.00  0.00    +0.000 HD
ENDROOT
BRANCH   3   5
ATOM      5  C   UNK A   4     -25.263 -10.371  19.814  0.00  0.00    +0.000 C 
BRANCH   5   6
ATOM      6  C   UNK A   4     -23.804  -9.918  19.735  0.00  0.00    +0.000 C 
ATOM      7  N   MET A   5     -23.052 -10.230  20.790  0.00  0.00    +0.000 N 
ATOM      8  H   MET A   5     -23.497 -10.672  21.619  0.00  0.00    +0.000 HD
ATOM      9  O   UNK A   4     -23.380  -9.289  18.755  0.00  0.00    +0.000 OA
BRANCH   7  10
ATOM     10  CA  MET A   5     -21.620  -9.965  20.806  0.00  0.00    +0.000 C 
BRANCH  10  11
ATOM     11  C   MET A   5     -20.865 -11.284  20.789  0.00  0.00    +0.000 C 
ATOM     12  O   MET A   5     -21.213 -12.196  21.529  0.00  0.00    +0.000 OA
ATOM     13  N   ASN A   6     -19.852 -11.406  19.938  0.00  0.00    +0.000 N 
ATOM     14  H   ASN A   6     -19.710 -10.690  19.197  0.00  0.00    +0.000 HD
BRANCH  13  15
ATOM     15  CA  ASN A   6     -18.938 -12.538  20.036  0.00  0.00    +0.000 C 
BRANCH  15  16
ATOM     16  C   ASN A   6     -17.741 -12.087  20.855  0.00  0.00    +0.000 C 
ATOM     17  O   ASN A   6     -17.019 -11.167  20.456  0.00  0.00    +0.000 OA
ENDBRANCH  15  16
BRANCH  15  18
ATOM     18  CB  ASN A   6     -18.525 -13.056  18.666  0.00  0.00    +0.000 C 
BRANCH  18  19
ATOM     19  CG  ASN A   6     -19.707 -13.606  17.866  0.00  0.00    +0.000 C 
ATOM     20  OD1 ASN A   6     -20.582 -14.262  18.409  0.00  0.00    +0.000 OA
ATOM     21  ND2 ASN A   6     -19.703 -13.369  16.574  0.00  0.00    +0.000 N 
ATOM     22 HD21 ASN A   6     -18.938 -12.805  16.151  0.00  0.00    +0.000 HD
ATOM     23 HD22 ASN A   6     -20.465 -13.745  15.974  0.00  0.00    +0.000 HD
ENDBRANCH  18  19
ENDBRANCH  15  18
ENDBRANCH  13  15
ENDBRANCH  10  11
BRANCH  10  24
ATOM     24  CB  MET A   5     -21.228  -9.148  22.040  0.00  0.00    +0.000 C 
BRANCH  24  25
ATOM     25  CG  MET A   5     -19.819  -8.591  21.951  0.00  0.00    +0.000 C 
BRANCH  25  26
ATOM     26  SD  MET A   5     -19.241  -7.688  23.392  0.00  0.00    +0.000 S 
ATOM     27  CE  MET A   5     -17.638  -7.200  22.780  0.00  0.00    +0.000 C 
ENDBRANCH  25  26
ENDBRANCH  24  25
ENDBRANCH  10  24
ENDBRANCH   7  10
ENDBRANCH   5   6
BRANCH   5  28
ATOM     28  C   UNK A   4     -25.322 -11.891  19.677  0.00  0.00    +0.000 C 
BRANCH  28  29
ATOM     29  C   UNK A   4     -24.577 -12.438  18.490  0.00  0.00    +0.000 C 
BRANCH  29  30
ATOM     30  C   UNK A   4     -24.275 -13.924  18.642  0.00  0.00    +0.000 C 
ATOM     31  O   UNK A   4     -24.502 -14.463  19.753  0.00  0.00    +0.000 OA
BRANCH  30  32
ATOM     32  O   UNK A   4     -23.810 -14.556  17.665  0.00  0.00    +0.000 OA
BRANCH  32  33
ATOM     33 MG   UNK A   4     -23.915 -14.483  15.685  0.00  0.00    +0.000 Mg
ATOM     34  O   UNK A   4     -23.705 -14.426  13.622  0.00  0.00    +0.000 OA
ENDBRANCH  32  33
ENDBRANCH  30  32
ENDBRANCH  29  30
ENDBRANCH  28  29
ENDBRANCH   5  28
ENDBRANCH   3   5
BRANCH   1  35
ATOM     35  CA  ILE A   3     -28.271  -9.036  17.883  0.00  0.00    +0.000 C 
BRANCH  35  38
ATOM     36  C   PHE A   2     -28.395  -6.611  18.016  0.00  0.00    +0.000 C 
ATOM     37  O   PHE A   2     -29.546  -6.674  18.447  0.00  0.00    +0.000 OA
ATOM     38  N   ILE A   3     -27.725  -7.692  17.620  0.00  0.00    +0.000 N 
ATOM     39  H   ILE A   3     -26.816  -7.588  17.125  0.00  0.00    +0.000 HD
BRANCH  36  40
ATOM     40  CA  PHE A   2     -27.685  -5.265  17.910  0.00  0.00    +0.000 C 
BRANCH  40  42
ATOM     41  C   TYR A   1     -29.006  -4.383  16.044  0.00  0.00    +0.000 C 
ATOM     42  N   PHE A   2     -28.542  -4.256  17.283  0.00  0.00    +0.000 N 
ATOM     43  H   PHE A   2     -28.797  -3.408  17.828  0.00  0.00    +0.000 HD
ATOM     44  O   TYR A   1     -28.732  -5.334  15.315  0.00  0.00    +0.000 OA
BRANCH  41  45
ATOM     45  CA  TYR A   1     -29.922  -3.268  15.541  0.00  0.00    +0.000 C 
BRANCH  45  46
ATOM     46  N   TYR A   1     -29.227  -2.574  14.457  0.00  0.00    +0.000 NA
ATOM     47  H   TYR A   1     -28.722  -3.147  13.751  0.00  0.00    +0.000 HD
ENDBRANCH  45  46
BRANCH  45  48
ATOM     48  CB  TYR A   1     -31.224  -3.896  15.039  0.00  0.00    +0.000 C 
BRANCH  48  49
ATOM     49  CG  TYR A   1     -32.232  -2.912  14.468  0.00  0.00    +0.000 A 
ATOM     50  CD2 TYR A   1     -33.036  -2.140  15.316  0.00  0.00    +0.000 A 
ATOM     51  CE2 TYR A   1     -33.970  -1.241  14.803  0.00  0.00    +0.000 A 
ATOM     52  CZ  TYR A   1     -34.093  -1.095  13.428  0.00  0.00    +0.000 A 
ATOM     53  CE1 TYR A   1     -33.308  -1.842  12.561  0.00  0.00    +0.000 A 
ATOM     54  CD1 TYR A   1     -32.380  -2.754  13.087  0.00  0.00    +0.000 A 
BRANCH  52  55
ATOM     55  OH  TYR A   1     -35.009  -0.199  12.926  0.00  0.00    +0.000 OA
ATOM     56  HH  TYR A   1     -34.975  -0.213  11.937  0.00  0.00    +0.000 HD
ENDBRANCH  52  55
ENDBRANCH  48  49
ENDBRANCH  45  48
ENDBRANCH  41  45
ENDBRANCH  40  42
BRANCH  40  57
ATOM     57  CB  PHE A   2     -27.268  -4.775  19.297  0.00  0.00    +0.000 C 
BRANCH  57  58
ATOM     58  CG  PHE A   2     -26.515  -5.798  20.124  0.00  0.00    +0.000 A 
ATOM     59  CD2 PHE A   2     -27.189  -6.582  21.072  0.00  0.00    +0.000 A 
ATOM     60  CE2 PHE A   2     -26.502  -7.516  21.855  0.00  0.00    +0.000 A 
ATOM     61  CZ  PHE A   2     -25.117  -7.663  21.699  0.00  0.00    +0.000 A 
ATOM     62  CE1 PHE A   2     -24.430  -6.886  20.758  0.00  0.00    +0.000 A 
ATOM     63  CD1 PHE A   2     -25.132  -5.950  19.979  0.00  0.00    +0.000 A 
ENDBRANCH  57  58
ENDBRANCH  40  57
ENDBRANCH  36  40
ENDBRANCH  35  38
BRANCH  35  64
ATOM     64  CB  ILE A   3     -28.541  -9.879  16.608  0.00  0.00    +0.000 C 
ATOM     65  CG2 ILE A   3     -29.855  -9.391  15.916  0.00  0.00    +0.000 C 
BRANCH  64  66
ATOM     66  CG1 ILE A   3     -27.339  -9.850  15.651  0.00  0.00    +0.000 C 
ATOM     67  CD1 ILE A   3     -27.351 -10.963  14.572  0.00  0.00    +0.000 C 
ENDBRANCH  64  66
ENDBRANCH  35  64
ENDBRANCH   1  35
TORSDOF 29
REMARK  Name = ../refined-set-2016/3rv4/3rv4_pocket.pdb
REMARK  254 active torsions:
REMARK  status: ('A' for Active; 'I' for Inactive)
REMARK    1  A    between atoms: _1  and  _3
REMARK    2  A    between atoms: _3  and  _4
REMARK    3  A    between atoms: _3  and  _6
REMARK    4  A    between atoms: _6  and  _7
REMARK    5  A    between atoms: _7  and  _8
REMARK    6  A    between atoms: _11  and  _13
REMARK    7  A    between atoms: _13  and  _14
REMARK    8  A    between atoms: _13  and  _16
REMARK    9  A    between atoms: _16  and  _17
REMARK   10  A    between atoms: _17  and  _18
REMARK   11  A    between atoms: _18  and  _19
REMARK   12  A    between atoms: _19  and  _20
REMARK   13  A    between atoms: _24  and  _26
REMARK   14  A    between atoms: _26  and  _27
REMARK   15  A    between atoms: _26  and  _29
REMARK   16  A    between atoms: _29  and  _30
REMARK   17  A    between atoms: _33  and  _35
REMARK   18  A    between atoms: _35  and  _36
REMARK   19  A    between atoms: _35  and  _38
REMARK   20  A    between atoms: _42  and  _43
REMARK   21  A    between atoms: _49  and  _50
REMARK   22  A    between atoms: _55  and  _57
REMARK   23  A    between atoms: _57  and  _58
REMARK   24  A    between atoms: _57  and  _60
REMARK   25  A    between atoms: _63  and  _65
REMARK   26  A    between atoms: _65  and  _66
REMARK   27  A    between atoms: _65  and  _68
REMARK   28  A    between atoms: _68  and  _69
REMARK   29  A    between atoms: _72  and  _74
REMARK   30  A    between atoms: _74  and  _75
REMARK   31  A    between atoms: _74  and  _77
REMARK   32  A    between atoms: _77  and  _78
REMARK   33  A    between atoms: _81  and  _83
REMARK   34  A    between atoms: _83  and  _84
REMARK   35  A    between atoms: _83  and  _86
REMARK   36  A    between atoms: _86  and  _87
REMARK   37  A    between atoms: _87  and  _88
REMARK   38  A    between atoms: _88  and  _89
REMARK   39  A    between atoms: _89  and  _90
REMARK   40  A    between atoms: _94  and  _96
REMARK   41  A    between atoms: _96  and  _97
REMARK   42  A    between atoms: _100  and  _102
REMARK   43  A    between atoms: _102  and  _103
REMARK   44  A    between atoms: _102  and  _105
REMARK   45  A    between atoms: _105  and  _106
REMARK   46  A    between atoms: _108  and  _110
REMARK   47  A    between atoms: _110  and  _111
REMARK   48  A    between atoms: _113  and  _115
REMARK   49  A    between atoms: _115  and  _116
REMARK   50  A    between atoms: _118  and  _120
REMARK   51  A    between atoms: _120  and  _121
REMARK   52  A    between atoms: _123  and  _125
REMARK   53  A    between atoms: _125  and  _126
REMARK   54  A    between atoms: _128  and  _130
REMARK   55  A    between atoms: _130  and  _131
REMARK   56  A    between atoms: _133  and  _135
REMARK   57  A    between atoms: _135  and  _136
REMARK   58  A    between atoms: _135  and  _138
REMARK   59  A    between atoms: _138  and  _139
REMARK   60  A    between atoms: _139  and  _140
REMARK   61  A    between atoms: _140  and  _141
REMARK   62  A    between atoms: _150  and  _152
REMARK   63  A    between atoms: _152  and  _153
REMARK   64  A    between atoms: _155  and  _157
REMARK   65  A    between atoms: _157  and  _158
REMARK   66  A    between atoms: _157  and  _160
REMARK   67  A    between atoms: _160  and  _161
REMARK   68  A    between atoms: _161  and  _162
REMARK   69  A    between atoms: _164  and  _166
REMARK   70  A    between atoms: _166  and  _167
REMARK   71  A    between atoms: _166  and  _169
REMARK   72  A    between atoms: _172  and  _174
REMARK   73  A    between atoms: _174  and  _175
REMARK   74  A    between atoms: _174  and  _177
REMARK   75  A    between atoms: _177  and  _178
REMARK   76  A    between atoms: _184  and  _186
REMARK   77  A    between atoms: _186  and  _187
REMARK   78  A    between atoms: _186  and  _189
REMARK   79  A    between atoms: _189  and  _190
REMARK   80  A    between atoms: _195  and  _196
REMARK   81  A    between atoms: _198  and  _200
REMARK   82  A    between atoms: _200  and  _201
REMARK   83  A    between atoms: _200  and  _203
REMARK   84  A    between atoms: _203  and  _204
REMARK   85  A    between atoms: _204  and  _205
REMARK   86  A    between atoms: _207  and  _209
REMARK   87  A    between atoms: _209  and  _210
REMARK   88  A    between atoms: _209  and  _212
REMARK   89  A    between atoms: _212  and  _213
REMARK   90  A    between atoms: _213  and  _214
REMARK   91  A    between atoms: _217  and  _219
REMARK   92  A    between atoms: _219  and  _220
REMARK   93  A    between atoms: _219  and  _222
REMARK   94  A    between atoms: _222  and  _223
REMARK   95  A    between atoms: _223  and  _224
REMARK   96  A    between atoms: _224  and  _225
REMARK   97  A    between atoms: _225  and  _226
REMARK   98  A    between atoms: _230  and  _232
REMARK   99  A    between atoms: _232  and  _233
REMARK  100  A    between atoms: _232  and  _235
REMARK  101  A    between atoms: _235  and  _236
REMARK  102  A    between atoms: _241  and  _242
REMARK  103  A    between atoms: _244  and  _246
REMARK  104  A    between atoms: _246  and  _247
REMARK  105  A    between atoms: _246  and  _249
REMARK  106  A    between atoms: _249  and  _250
REMARK  107  A    between atoms: _253  and  _255
REMARK  108  A    between atoms: _255  and  _256
REMARK  109  A    between atoms: _255  and  _258
REMARK  110  A    between atoms: _258  and  _259
REMARK  111  A    between atoms: _259  and  _260
REMARK  112  A    between atoms: _263  and  _265
REMARK  113  A    between atoms: _265  and  _266
REMARK  114  A    between atoms: _265  and  _268
REMARK  115  A    between atoms: _268  and  _269
REMARK  116  A    between atoms: _275  and  _276
REMARK  117  A    between atoms: _281  and  _283
REMARK  118  A    between atoms: _283  and  _284
REMARK  119  A    between atoms: _283  and  _286
REMARK  120  A    between atoms: _286  and  _287
REMARK  121  A    between atoms: _287  and  _288
REMARK  122  A    between atoms: _288  and  _289
REMARK  123  A    between atoms: _298  and  _300
REMARK  124  A    between atoms: _300  and  _301
REMARK  125  A    between atoms: _300  and  _303
REMARK  126  A    between atoms: _303  and  _304
REMARK  127  A    between atoms: _309  and  _311
REMARK  128  A    between atoms: _311  and  _312
REMARK  129  A    between atoms: _311  and  _314
REMARK  130  A    between atoms: _317  and  _319
REMARK  131  A    between atoms: _319  and  _320
REMARK  132  A    between atoms: _319  and  _322
REMARK  133  A    between atoms: _322  and  _323
REMARK  134  A    between atoms: _323  and  _324
REMARK  135  A    between atoms: _327  and  _329
REMARK  136  A    between atoms: _329  and  _330
REMARK  137  A    between atoms: _329  and  _332
REMARK  138  A    between atoms: _334  and  _336
REMARK  139  A    between atoms: _336  and  _337
REMARK  140  A    between atoms: _336  and  _339
REMARK  141  A    between atoms: _339  and  _340
REMARK  142  A    between atoms: _342  and  _344
REMARK  143  A    between atoms: _344  and  _345
REMARK  144  A    between atoms: _344  and  _347
REMARK  145  A    between atoms: _347  and  _348
REMARK  146  A    between atoms: _348  and  _349
REMARK  147  A    between atoms: _351  and  _353
REMARK  148  A    between atoms: _353  and  _354
REMARK  149  A    between atoms: _353  and  _356
REMARK  150  A    between atoms: _356  and  _357
REMARK  151  A    between atoms: _357  and  _358
REMARK  152  A    between atoms: _363  and  _365
REMARK  153  A    between atoms: _365  and  _366
REMARK  154  A    between atoms: _365  and  _368
REMARK  155  A    between atoms: _368  and  _369
REMARK  156  A    between atoms: _369  and  _370
REMARK  157  A    between atoms: _370  and  _371
REMARK  158  A    between atoms: _380  and  _382
REMARK  159  A    between atoms: _382  and  _383
REMARK  160  A    between atoms: _382  and  _385
REMARK  161  A    between atoms: _385  and  _386
REMARK  162  A    between atoms: _386  and  _387
REMARK  163  A    between atoms: _387  and  _388
REMARK  164  A    between atoms: _397  and  _399
REMARK  165  A    between atoms: _399  and  _400
REMARK  166  A    between atoms: _399  and  _402
REMARK  167  A    between atoms: _402  and  _403
REMARK  168  A    between atoms: _408  and  _410
REMARK  169  A    between atoms: _410  and  _411
REMARK  170  A    between atoms: _410  and  _413
REMARK  171  A    between atoms: _413  and  _414
REMARK  172  A    between atoms: _414  and  _415
REMARK  173  A    between atoms: _420  and  _422
REMARK  174  A    between atoms: _422  and  _423
REMARK  175  A    between atoms: _422  and  _425
REMARK  176  A    between atoms: _425  and  _426
REMARK  177  A    between atoms: _426  and  _427
REMARK  178  A    between atoms: _427  and  _428
REMARK  179  A    between atoms: _428  and  _429
REMARK  180  A    between atoms: _433  and  _435
REMARK  181  A    between atoms: _435  and  _436
REMARK  182  A    between atoms: _435  and  _438
REMARK  183  A    between atoms: _438  and  _439
REMARK  184  A    between atoms: _439  and  _440
REMARK  185  A    between atoms: _443  and  _445
REMARK  186  A    between atoms: _445  and  _446
REMARK  187  A    between atoms: _445  and  _448
REMARK  188  A    between atoms: _448  and  _449
REMARK  189  A    between atoms: _455  and  _457
REMARK  190  A    between atoms: _457  and  _458
REMARK  191  A    between atoms: _457  and  _460
REMARK  192  A    between atoms: _460  and  _461
REMARK  193  A    between atoms: _464  and  _466
REMARK  194  A    between atoms: _466  and  _467
REMARK  195  A    between atoms: _466  and  _469
REMARK  196  A    between atoms: _469  and  _470
REMARK  197  A    between atoms: _470  and  _471
REMARK  198  A    between atoms: _474  and  _476
REMARK  199  A    between atoms: _476  and  _477
REMARK  200  A    between atoms: _476  and  _479
REMARK  201  A    between atoms: _479  and  _480
REMARK  202  A    between atoms: _485  and  _486
REMARK  203  A    between atoms: _488  and  _490
REMARK  204  A    between atoms: _490  and  _491
REMARK  205  A    between atoms: _490  and  _493
REMARK  206  A    between atoms: _493  and  _494
REMARK  207  A    between atoms: _500  and  _502
REMARK  208  A    between atoms: _502  and  _503
REMARK  209  A    between atoms: _502  and  _505
REMARK  210  A    between atoms: _505  and  _506
REMARK  211  A    between atoms: _509  and  _511
REMARK  212  A    between atoms: _511  and  _512
REMARK  213  A    between atoms: _511  and  _514
REMARK  214  A    between atoms: _514  and  _515
REMARK  215  A    between atoms: _515  and  _516
REMARK  216  A    between atoms: _516  and  _518
REMARK  217  A    between atoms: _518  and  MG_609
REMARK  218  A    between atoms: _519  and  _521
REMARK  219  A    between atoms: _521  and  _522
REMARK  220  A    between atoms: _521  and  _524
REMARK  221  A    between atoms: _524  and  _525
REMARK  222  A    between atoms: _525  and  _526
REMARK  223  A    between atoms: _528  and  _530
REMARK  224  A    between atoms: _530  and  _531
REMARK  225  A    between atoms: _530  and  _533
REMARK  226  A    between atoms: _533  and  _534
REMARK  227  A    between atoms: _539  and  _541
REMARK  228  A    between atoms: _541  and  _542
REMARK  229  A    between atoms: _541  and  _544
REMARK  230  A    between atoms: _544  and  _545
REMARK  231  A    between atoms: _545  and  _546
REMARK  232  A    between atoms: _546  and  _547
REMARK  233  A    between atoms: _556  and  _558
REMARK  234  A    between atoms: _558  and  _559
REMARK  235  A    between atoms: _558  and  _561
REMARK  236  A    between atoms: _561  and  _562
REMARK  237  A    between atoms: _562  and  _563
REMARK  238  A    between atoms: _568  and  _570
REMARK  239  A    between atoms: _570  and  _571
REMARK  240  A    between atoms: _570  and  _573
REMARK  241  A    between atoms: _573  and  _574
REMARK  242  A    between atoms: _579  and  _581
REMARK  243  A    between atoms: _581  and  _582
REMARK  244  A    between atoms: _581  and  _584
REMARK  245  A    between atoms: _584  and  _585
REMARK  246  A    between atoms: _588  and  _590
REMARK  247  A    between atoms: _590  and  _591
REMARK  248  A    between atoms: _590  and  _593
REMARK  249  A    between atoms: _593  and  _594
REMARK  250  A    between atoms: _599  and  _601
REMARK  251  A    between atoms: _601  and  _602
REMARK  252  A    between atoms: _601  and  _604
REMARK  253  A    between atoms: _604  and  _605
REMARK  254  A    between atoms: _605  and  _606
REMARK                            x       y       z     vdW  Elec       q    Type
REMARK                         _______ _______ _______ _____ _____    ______ ____
ROOT
ATOM      1  NE  ARG A   1     -16.830 -16.824  18.999  0.00  0.00    -0.265 N 
ATOM      2  HE  ARG A   1     -17.691 -17.059  19.533  0.00  0.00    +0.259 HD
ATOM      3  CZ  ARG A   1     -16.934 -16.695  17.679  0.00  0.00    +0.342 C 
ATOM      4  NH2 ARG A   1     -18.106 -16.896  17.072  0.00  0.00    -0.292 N 
ATOM      5 HH21 ARG A   1     -18.944 -17.155  17.631  0.00  0.00    +0.255 HD
ATOM      6 HH22 ARG A   1     -18.181 -16.794  16.040  0.00  0.00    +0.255 HD
ATOM      7  NH1 ARG A   1     -15.863 -16.386  16.964  0.00  0.00    -0.292 N 
ATOM      8 HH11 ARG A   1     -14.946 -16.245  17.435  0.00  0.00    +0.255 HD
ATOM      9 HH12 ARG A   1     -15.939 -16.284  15.932  0.00  0.00    +0.255 HD
ENDROOT
BRANCH   1  10
ATOM     10  CD  ARG A   1     -15.582 -16.657  19.752  0.00  0.00    +0.174 C 
BRANCH  10  11
ATOM     11  CG  ARG A   1     -15.403 -15.247  20.273  0.00  0.00    +0.045 C 
BRANCH  11  12
ATOM     12  CB  ARG A   1     -14.083 -15.117  21.052  0.00  0.00    +0.029 C 
BRANCH  12  13
ATOM     13  CA  ARG A   1     -13.574 -13.672  21.188  0.00  0.00    +0.133 C 
BRANCH  13  14
ATOM     14  N   ARG A   1     -14.653 -12.813  21.669  0.00  0.00    -0.239 NA
ATOM     15  H   ARG A   1     -14.952 -12.016  21.072  0.00  0.00    +0.142 HD
ENDBRANCH  13  14
BRANCH  13  16
ATOM     16  C   ARG A   1     -13.126 -13.206  19.814  0.00  0.00    +0.224 C 
ATOM     17  O   ARG A   1     -13.826 -12.426  19.162  0.00  0.00    -0.287 OA
ENDBRANCH  13  16
ENDBRANCH  12  13
ENDBRANCH  11  12
ENDBRANCH  10  11
ENDBRANCH   1  10
TORSDOF 6
REMARK  Name = ../refined-set-2016/3rv4/3rv4_pocket.pdb
REMARK  254 active torsions:
REMARK  status: ('A' for Active; 'I' for Inactive)
REMARK    1  A    between atoms: _1  and  _3
REMARK    2  A    between atoms: _3  and  _4
REMARK    3  A    between atoms: _3  and  _6
REMARK    4  A    between atoms: _6  and  _7
REMARK    5  A    between atoms: _7  and  _8
REMARK    6  A    between atoms: _11  and  _13
REMARK    7  A    between atoms: _13  and  _14
REMARK    8  A    between atoms: _13  and  _16
REMARK    9  A    between atoms: _16  and  _17
REMARK   10  A    between atoms: _17  and  _18
REMARK   11  A    between atoms: _18  and  _19
REMARK   12  A    between atoms: _19  and  _20
REMARK   13  A    between atoms: _24  and  _26
REMARK   14  A    between atoms: _26  and  _27
REMARK   15  A    between atoms: _26  and  _29
REMARK   16  A    between atoms: _29  and  _30
REMARK   17  A    between atoms: _33  and  _35
REMARK   18  A    between atoms: _35  and  _36
REMARK   19  A    between atoms: _35  and  _38
REMARK   20  A    between atoms: _42  and  _43
REMARK   21  A    between atoms: _49  and  _50
REMARK   22  A    between atoms: _55  and  _57
REMARK   23  A    between atoms: _57  and  _58
REMARK   24  A    between atoms: _57  and  _60
REMARK   25  A    between atoms: _63  and  _65
REMARK   26  A    between atoms: _65  and  _66
REMARK   27  A    between atoms: _65  and  _68
REMARK   28  A    between atoms: _68  and  _69
REMARK   29  A    between atoms: _72  and  _74
REMARK   30  A    between atoms: _74  and  _75
REMARK   31  A    between atoms: _74  and  _77
REMARK   32  A    between atoms: _77  and  _78
REMARK   33  A    between atoms: _81  and  _83
REMARK   34  A    between atoms: _83  and  _84
REMARK   35  A    between atoms: _83  and  _86
REMARK   36  A    between atoms: _86  and  _87
REMARK   37  A    between atoms: _87  and  _88
REMARK   38  A    between atoms: _88  and  _89
REMARK   39  A    between atoms: _89  and  _90
REMARK   40  A    between atoms: _94  and  _96
REMARK   41  A    between atoms: _96  and  _97
REMARK   42  A    between atoms: _100  and  _102
REMARK   43  A    between atoms: _102  and  _103
REMARK   44  A    between atoms: _102  and  _105
REMARK   45  A    between atoms: _105  and  _106
REMARK   46  A    between atoms: _108  and  _110
REMARK   47  A    between atoms: _110  and  _111
REMARK   48  A    between atoms: _113  and  _115
REMARK   49  A    between atoms: _115  and  _116
REMARK   50  A    between atoms: _118  and  _120
REMARK   51  A    between atoms: _120  and  _121
REMARK   52  A    between atoms: _123  and  _125
REMARK   53  A    between atoms: _125  and  _126
REMARK   54  A    between atoms: _128  and  _130
REMARK   55  A    between atoms: _130  and  _131
REMARK   56  A    between atoms: _133  and  _135
REMARK   57  A    between atoms: _135  and  _136
REMARK   58  A    between atoms: _135  and  _138
REMARK   59  A    between atoms: _138  and  _139
REMARK   60  A    between atoms: _139  and  _140
REMARK   61  A    between atoms: _140  and  _141
REMARK   62  A    between atoms: _150  and  _152
REMARK   63  A    between atoms: _152  and  _153
REMARK   64  A    between atoms: _155  and  _157
REMARK   65  A    between atoms: _157  and  _158
REMARK   66  A    between atoms: _157  and  _160
REMARK   67  A    between atoms: _160  and  _161
REMARK   68  A    between atoms: _161  and  _162
REMARK   69  A    between atoms: _164  and  _166
REMARK   70  A    between atoms: _166  and  _167
REMARK   71  A    between atoms: _166  and  _169
REMARK   72  A    between atoms: _172  and  _174
REMARK   73  A    between atoms: _174  and  _175
REMARK   74  A    between atoms: _174  and  _177
REMARK   75  A    between atoms: _177  and  _178
REMARK   76  A    between atoms: _184  and  _186
REMARK   77  A    between atoms: _186  and  _187
REMARK   78  A    between atoms: _186  and  _189
REMARK   79  A    between atoms: _189  and  _190
REMARK   80  A    between atoms: _195  and  _196
REMARK   81  A    between atoms: _198  and  _200
REMARK   82  A    between atoms: _200  and  _201
REMARK   83  A    between atoms: _200  and  _203
REMARK   84  A    between atoms: _203  and  _204
REMARK   85  A    between atoms: _204  and  _205
REMARK   86  A    between atoms: _207  and  _209
REMARK   87  A    between atoms: _209  and  _210
REMARK   88  A    between atoms: _209  and  _212
REMARK   89  A    between atoms: _212  and  _213
REMARK   90  A    between atoms: _213  and  _214
REMARK   91  A    between atoms: _217  and  _219
REMARK   92  A    between atoms: _219  and  _220
REMARK   93  A    between atoms: _219  and  _222
REMARK   94  A    between atoms: _222  and  _223
REMARK   95  A    between atoms: _223  and  _224
REMARK   96  A    between atoms: _224  and  _225
REMARK   97  A    between atoms: _225  and  _226
REMARK   98  A    between atoms: _230  and  _232
REMARK   99  A    between atoms: _232  and  _233
REMARK  100  A    between atoms: _232  and  _235
REMARK  101  A    between atoms: _235  and  _236
REMARK  102  A    between atoms: _241  and  _242
REMARK  103  A    between atoms: _244  and  _246
REMARK  104  A    between atoms: _246  and  _247
REMARK  105  A    between atoms: _246  and  _249
REMARK  106  A    between atoms: _249  and  _250
REMARK  107  A    between atoms: _253  and  _255
REMARK  108  A    between atoms: _255  and  _256
REMARK  109  A    between atoms: _255  and  _258
REMARK  110  A    between atoms: _258  and  _259
REMARK  111  A    between atoms: _259  and  _260
REMARK  112  A    between atoms: _263  and  _265
REMARK  113  A    between atoms: _265  and  _266
REMARK  114  A    between atoms: _265  and  _268
REMARK  115  A    between atoms: _268  and  _269
REMARK  116  A    between atoms: _275  and  _276
REMARK  117  A    between atoms: _281  and  _283
REMARK  118  A    between atoms: _283  and  _284
REMARK  119  A    between atoms: _283  and  _286
REMARK  120  A    between atoms: _286  and  _287
REMARK  121  A    between atoms: _287  and  _288
REMARK  122  A    between atoms: _288  and  _289
REMARK  123  A    between atoms: _298  and  _300
REMARK  124  A    between atoms: _300  and  _301
REMARK  125  A    between atoms: _300  and  _303
REMARK  126  A    between atoms: _303  and  _304
REMARK  127  A    between atoms: _309  and  _311
REMARK  128  A    between atoms: _311  and  _312
REMARK  129  A    between atoms: _311  and  _314
REMARK  130  A    between atoms: _317  and  _319
REMARK  131  A    between atoms: _319  and  _320
REMARK  132  A    between atoms: _319  and  _322
REMARK  133  A    between atoms: _322  and  _323
REMARK  134  A    between atoms: _323  and  _324
REMARK  135  A    between atoms: _327  and  _329
REMARK  136  A    between atoms: _329  and  _330
REMARK  137  A    between atoms: _329  and  _332
REMARK  138  A    between atoms: _334  and  _336
REMARK  139  A    between atoms: _336  and  _337
REMARK  140  A    between atoms: _336  and  _339
REMARK  141  A    between atoms: _339  and  _340
REMARK  142  A    between atoms: _342  and  _344
REMARK  143  A    between atoms: _344  and  _345
REMARK  144  A    between atoms: _344  and  _347
REMARK  145  A    between atoms: _347  and  _348
REMARK  146  A    between atoms: _348  and  _349
REMARK  147  A    between atoms: _351  and  _353
REMARK  148  A    between atoms: _353  and  _354
REMARK  149  A    between atoms: _353  and  _356
REMARK  150  A    between atoms: _356  and  _357
REMARK  151  A    between atoms: _357  and  _358
REMARK  152  A    between atoms: _363  and  _365
REMARK  153  A    between atoms: _365  and  _366
REMARK  154  A    between atoms: _365  and  _368
REMARK  155  A    between atoms: _368  and  _369
REMARK  156  A    between atoms: _369  and  _370
REMARK  157  A    between atoms: _370  and  _371
REMARK  158  A    between atoms: _380  and  _382
REMARK  159  A    between atoms: _382  and  _383
REMARK  160  A    between atoms: _382  and  _385
REMARK  161  A    between atoms: _385  and  _386
REMARK  162  A    between atoms: _386  and  _387
REMARK  163  A    between atoms: _387  and  _388
REMARK  164  A    between atoms: _397  and  _399
REMARK  165  A    between atoms: _399  and  _400
REMARK  166  A    between atoms: _399  and  _402
REMARK  167  A    between atoms: _402  and  _403
REMARK  168  A    between atoms: _408  and  _410
REMARK  169  A    between atoms: _410  and  _411
REMARK  170  A    between atoms: _410  and  _413
REMARK  171  A    between atoms: _413  and  _414
REMARK  172  A    between atoms: _414  and  _415
REMARK  173  A    between atoms: _420  and  _422
REMARK  174  A    between atoms: _422  and  _423
REMARK  175  A    between atoms: _422  and  _425
REMARK  176  A    between atoms: _425  and  _426
REMARK  177  A    between atoms: _426  and  _427
REMARK  178  A    between atoms: _427  and  _428
REMARK  179  A    between atoms: _428  and  _429
REMARK  180  A    between atoms: _433  and  _435
REMARK  181  A    between atoms: _435  and  _436
REMARK  182  A    between atoms: _435  and  _438
REMARK  183  A    between atoms: _438  and  _439
REMARK  184  A    between atoms: _439  and  _440
REMARK  185  A    between atoms: _443  and  _445
REMARK  186  A    between atoms: _445  and  _446
REMARK  187  A    between atoms: _445  and  _448
REMARK  188  A    between atoms: _448  and  _449
REMARK  189  A    between atoms: _455  and  _457
REMARK  190  A    between atoms: _457  and  _458
REMARK  191  A    between atoms: _457  and  _460
REMARK  192  A    between atoms: _460  and  _461
REMARK  193  A    between atoms: _464  and  _466
REMARK  194  A    between atoms: _466  and  _467
REMARK  195  A    between atoms: _466  and  _469
REMARK  196  A    between atoms: _469  and  _470
REMARK  197  A    between atoms: _470  and  _471
REMARK  198  A    between atoms: _474  and  _476
REMARK  199  A    between atoms: _476  and  _477
REMARK  200  A    between atoms: _476  and  _479
REMARK  201  A    between atoms: _479  and  _480
REMARK  202  A    between atoms: _485  and  _486
REMARK  203  A    between atoms: _488  and  _490
REMARK  204  A    between atoms: _490  and  _491
REMARK  205  A    between atoms: _490  and  _493
REMARK  206  A    between atoms: _493  and  _494
REMARK  207  A    between atoms: _500  and  _502
REMARK  208  A    between atoms: _502  and  _503
REMARK  209  A    between atoms: _502  and  _505
REMARK  210  A    between atoms: _505  and  _506
REMARK  211  A    between atoms: _509  and  _511
REMARK  212  A    between atoms: _511  and  _512
REMARK  213  A    between atoms: _511  and  _514
REMARK  214  A    between atoms: _514  and  _515
REMARK  215  A    between atoms: _515  and  _516
REMARK  216  A    between atoms: _516  and  _518
REMARK  217  A    between atoms: _518  and  MG_609
REMARK  218  A    between atoms: _519  and  _521
REMARK  219  A    between atoms: _521  and  _522
REMARK  220  A    between atoms: _521  and  _524
REMARK  221  A    between atoms: _524  and  _525
REMARK  222  A    between atoms: _525  and  _526
REMARK  223  A    between atoms: _528  and  _530
REMARK  224  A    between atoms: _530  and  _531
REMARK  225  A    between atoms: _530  and  _533
REMARK  226  A    between atoms: _533  and  _534
REMARK  227  A    between atoms: _539  and  _541
REMARK  228  A    between atoms: _541  and  _542
REMARK  229  A    between atoms: _541  and  _544
REMARK  230  A    between atoms: _544  and  _545
REMARK  231  A    between atoms: _545  and  _546
REMARK  232  A    between atoms: _546  and  _547
REMARK  233  A    between atoms: _556  and  _558
REMARK  234  A    between atoms: _558  and  _559
REMARK  235  A    between atoms: _558  and  _561
REMARK  236  A    between atoms: _561  and  _562
REMARK  237  A    between atoms: _562  and  _563
REMARK  238  A    between atoms: _568  and  _570
REMARK  239  A    between atoms: _570  and  _571
REMARK  240  A    between atoms: _570  and  _573
REMARK  241  A    between atoms: _573  and  _574
REMARK  242  A    between atoms: _579  and  _581
REMARK  243  A    between atoms: _581  and  _582
REMARK  244  A    between atoms: _581  and  _584
REMARK  245  A    between atoms: _584  and  _585
REMARK  246  A    between atoms: _588  and  _590
REMARK  247  A    between atoms: _590  and  _591
REMARK  248  A    between atoms: _590  and  _593
REMARK  249  A    between atoms: _593  and  _594
REMARK  250  A    between atoms: _599  and  _601
REMARK  251  A    between atoms: _601  and  _602
REMARK  252  A    between atoms: _601  and  _604
REMARK  253  A    between atoms: _604  and  _605
REMARK  254  A    between atoms: _605  and  _606
REMARK                            x       y       z     vdW  Elec       q    Type
REMARK                         _______ _______ _______ _____ _____    ______ ____
ROOT
ATOM      1  CB  GLN A   1     -14.746 -13.470  14.367  0.00  0.00    +0.035 C 
ENDROOT
BRANCH   1   2
ATOM      2  CA  GLN A   1     -13.702 -14.445  14.876  0.00  0.00    +0.134 C 
BRANCH   2   3
ATOM      3  N   GLN A   1     -12.812 -13.786  15.827  0.00  0.00    -0.239 NA
ATOM      4  H   GLN A   1     -12.310 -12.919  15.549  0.00  0.00    +0.142 HD
ENDBRANCH   2   3
BRANCH   2   5
ATOM      5  C   GLN A   1     -12.945 -15.055  13.708  0.00  0.00    +0.224 C 
ATOM      6  O   GLN A   1     -11.847 -14.611  13.377  0.00  0.00    -0.287 OA
ENDBRANCH   2   5
ENDBRANCH   1   2
BRANCH   1   7
ATOM      7  CG  GLN A   1     -15.802 -13.067  15.403  0.00  0.00    +0.087 C 
BRANCH   7   8
ATOM      8  CD  GLN A   1     -16.959 -12.363  14.755  0.00  0.00    +0.219 C 
ATOM      9  OE1 GLN A   1     -18.080 -12.422  15.227  0.00  0.00    -0.275 OA
ATOM     10  NE2 GLN A   1     -16.704 -11.731  13.639  0.00  0.00    -0.329 N 
ATOM     11 HE21 GLN A   1     -15.733 -11.703  13.268  0.00  0.00    +0.145 HD
ATOM     12 HE22 GLN A   1     -17.472 -11.257  13.123  0.00  0.00    +0.145 HD
ENDBRANCH   7   8
ENDBRANCH   1   7
TORSDOF 5
REMARK  Name = ../refined-set-2016/3rv4/3rv4_pocket.pdb
REMARK  254 active torsions:
REMARK  status: ('A' for Active; 'I' for Inactive)
REMARK    1  A    between atoms: _1  and  _3
REMARK    2  A    between atoms: _3  and  _4
REMARK    3  A    between atoms: _3  and  _6
REMARK    4  A    between atoms: _6  and  _7
REMARK    5  A    between atoms: _7  and  _8
REMARK    6  A    between atoms: _11  and  _13
REMARK    7  A    between atoms: _13  and  _14
REMARK    8  A    between atoms: _13  and  _16
REMARK    9  A    between atoms: _16  and  _17
REMARK   10  A    between atoms: _17  and  _18
REMARK   11  A    between atoms: _18  and  _19
REMARK   12  A    between atoms: _19  and  _20
REMARK   13  A    between atoms: _24  and  _26
REMARK   14  A    between atoms: _26  and  _27
REMARK   15  A    between atoms: _26  and  _29
REMARK   16  A    between atoms: _29  and  _30
REMARK   17  A    between atoms: _33  and  _35
REMARK   18  A    between atoms: _35  and  _36
REMARK   19  A    between atoms: _35  and  _38
REMARK   20  A    between atoms: _42  and  _43
REMARK   21  A    between atoms: _49  and  _50
REMARK   22  A    between atoms: _55  and  _57
REMARK   23  A    between atoms: _57  and  _58
REMARK   24  A    between atoms: _57  and  _60
REMARK   25  A    between atoms: _63  and  _65
REMARK   26  A    between atoms: _65  and  _66
REMARK   27  A    between atoms: _65  and  _68
REMARK   28  A    between atoms: _68  and  _69
REMARK   29  A    between atoms: _72  and  _74
REMARK   30  A    between atoms: _74  and  _75
REMARK   31  A    between atoms: _74  and  _77
REMARK   32  A    between atoms: _77  and  _78
REMARK   33  A    between atoms: _81  and  _83
REMARK   34  A    between atoms: _83  and  _84
REMARK   35  A    between atoms: _83  and  _86
REMARK   36  A    between atoms: _86  and  _87
REMARK   37  A    between atoms: _87  and  _88
REMARK   38  A    between atoms: _88  and  _89
REMARK   39  A    between atoms: _89  and  _90
REMARK   40  A    between atoms: _94  and  _96
REMARK   41  A    between atoms: _96  and  _97
REMARK   42  A    between atoms: _100  and  _102
REMARK   43  A    between atoms: _102  and  _103
REMARK   44  A    between atoms: _102  and  _105
REMARK   45  A    between atoms: _105  and  _106
REMARK   46  A    between atoms: _108  and  _110
REMARK   47  A    between atoms: _110  and  _111
REMARK   48  A    between atoms: _113  and  _115
REMARK   49  A    between atoms: _115  and  _116
REMARK   50  A    between atoms: _118  and  _120
REMARK   51  A    between atoms: _120  and  _121
REMARK   52  A    between atoms: _123  and  _125
REMARK   53  A    between atoms: _125  and  _126
REMARK   54  A    between atoms: _128  and  _130
REMARK   55  A    between atoms: _130  and  _131
REMARK   56  A    between atoms: _133  and  _135
REMARK   57  A    between atoms: _135  and  _136
REMARK   58  A    between atoms: _135  and  _138
REMARK   59  A    between atoms: _138  and  _139
REMARK   60  A    between atoms: _139  and  _140
REMARK   61  A    between atoms: _140  and  _141
REMARK   62  A    between atoms: _150  and  _152
REMARK   63  A    between atoms: _152  and  _153
REMARK   64  A    between atoms: _155  and  _157
REMARK   65  A    between atoms: _157  and  _158
REMARK   66  A    between atoms: _157  and  _160
REMARK   67  A    between atoms: _160  and  _161
REMARK   68  A    between atoms: _161  and  _162
REMARK   69  A    between atoms: _164  and  _166
REMARK   70  A    between atoms: _166  and  _167
REMARK   71  A    between atoms: _166  and  _169
REMARK   72  A    between atoms: _172  and  _174
REMARK   73  A    between atoms: _174  and  _175
REMARK   74  A    between atoms: _174  and  _177
REMARK   75  A    between atoms: _177  and  _178
REMARK   76  A    between atoms: _184  and  _186
REMARK   77  A    between atoms: _186  and  _187
REMARK   78  A    between atoms: _186  and  _189
REMARK   79  A    between atoms: _189  and  _190
REMARK   80  A    between atoms: _195  and  _196
REMARK   81  A    between atoms: _198  and  _200
REMARK   82  A    between atoms: _200  and  _201
REMARK   83  A    between atoms: _200  and  _203
REMARK   84  A    between atoms: _203  and  _204
REMARK   85  A    between atoms: _204  and  _205
REMARK   86  A    between atoms: _207  and  _209
REMARK   87  A    between atoms: _209  and  _210
REMARK   88  A    between atoms: _209  and  _212
REMARK   89  A    between atoms: _212  and  _213
REMARK   90  A    between atoms: _213  and  _214
REMARK   91  A    between atoms: _217  and  _219
REMARK   92  A    between atoms: _219  and  _220
REMARK   93  A    between atoms: _219  and  _222
REMARK   94  A    between atoms: _222  and  _223
REMARK   95  A    between atoms: _223  and  _224
REMARK   96  A    between atoms: _224  and  _225
REMARK   97  A    between atoms: _225  and  _226
REMARK   98  A    between atoms: _230  and  _232
REMARK   99  A    between atoms: _232  and  _233
REMARK  100  A    between atoms: _232  and  _235
REMARK  101  A    between atoms: _235  and  _236
REMARK  102  A    between atoms: _241  and  _242
REMARK  103  A    between atoms: _244  and  _246
REMARK  104  A    between atoms: _246  and  _247
REMARK  105  A    between atoms: _246  and  _249
REMARK  106  A    between atoms: _249  and  _250
REMARK  107  A    between atoms: _253  and  _255
REMARK  108  A    between atoms: _255  and  _256
REMARK  109  A    between atoms: _255  and  _258
REMARK  110  A    between atoms: _258  and  _259
REMARK  111  A    between atoms: _259  and  _260
REMARK  112  A    between atoms: _263  and  _265
REMARK  113  A    between atoms: _265  and  _266
REMARK  114  A    between atoms: _265  and  _268
REMARK  115  A    between atoms: _268  and  _269
REMARK  116  A    between atoms: _275  and  _276
REMARK  117  A    between atoms: _281  and  _283
REMARK  118  A    between atoms: _283  and  _284
REMARK  119  A    between atoms: _283  and  _286
REMARK  120  A    between atoms: _286  and  _287
REMARK  121  A    between atoms: _287  and  _288
REMARK  122  A    between atoms: _288  and  _289
REMARK  123  A    between atoms: _298  and  _300
REMARK  124  A    between atoms: _300  and  _301
REMARK  125  A    between atoms: _300  and  _303
REMARK  126  A    between atoms: _303  and  _304
REMARK  127  A    between atoms: _309  and  _311
REMARK  128  A    between atoms: _311  and  _312
REMARK  129  A    between atoms: _311  and  _314
REMARK  130  A    between atoms: _317  and  _319
REMARK  131  A    between atoms: _319  and  _320
REMARK  132  A    between atoms: _319  and  _322
REMARK  133  A    between atoms: _322  and  _323
REMARK  134  A    between atoms: _323  and  _324
REMARK  135  A    between atoms: _327  and  _329
REMARK  136  A    between atoms: _329  and  _330
REMARK  137  A    between atoms: _329  and  _332
REMARK  138  A    between atoms: _334  and  _336
REMARK  139  A    between atoms: _336  and  _337
REMARK  140  A    between atoms: _336  and  _339
REMARK  141  A    between atoms: _339  and  _340
REMARK  142  A    between atoms: _342  and  _344
REMARK  143  A    between atoms: _344  and  _345
REMARK  144  A    between atoms: _344  and  _347
REMARK  145  A    between atoms: _347  and  _348
REMARK  146  A    between atoms: _348  and  _349
REMARK  147  A    between atoms: _351  and  _353
REMARK  148  A    between atoms: _353  and  _354
REMARK  149  A    between atoms: _353  and  _356
REMARK  150  A    between atoms: _356  and  _357
REMARK  151  A    between atoms: _357  and  _358
REMARK  152  A    between atoms: _363  and  _365
REMARK  153  A    between atoms: _365  and  _366
REMARK  154  A    between atoms: _365  and  _368
REMARK  155  A    between atoms: _368  and  _369
REMARK  156  A    between atoms: _369  and  _370
REMARK  157  A    between atoms: _370  and  _371
REMARK  158  A    between atoms: _380  and  _382
REMARK  159  A    between atoms: _382  and  _383
REMARK  160  A    between atoms: _382  and  _385
REMARK  161  A    between atoms: _385  and  _386
REMARK  162  A    between atoms: _386  and  _387
REMARK  163  A    between atoms: _387  and  _388
REMARK  164  A    between atoms: _397  and  _399
REMARK  165  A    between atoms: _399  and  _400
REMARK  166  A    between atoms: _399  and  _402
REMARK  167  A    between atoms: _402  and  _403
REMARK  168  A    between atoms: _408  and  _410
REMARK  169  A    between atoms: _410  and  _411
REMARK  170  A    between atoms: _410  and  _413
REMARK  171  A    between atoms: _413  and  _414
REMARK  172  A    between atoms: _414  and  _415
REMARK  173  A    between atoms: _420  and  _422
REMARK  174  A    between atoms: _422  and  _423
REMARK  175  A    between atoms: _422  and  _425
REMARK  176  A    between atoms: _425  and  _426
REMARK  177  A    between atoms: _426  and  _427
REMARK  178  A    between atoms: _427  and  _428
REMARK  179  A    between atoms: _428  and  _429
REMARK  180  A    between atoms: _433  and  _435
REMARK  181  A    between atoms: _435  and  _436
REMARK  182  A    between atoms: _435  and  _438
REMARK  183  A    between atoms: _438  and  _439
REMARK  184  A    between atoms: _439  and  _440
REMARK  185  A    between atoms: _443  and  _445
REMARK  186  A    between atoms: _445  and  _446
REMARK  187  A    between atoms: _445  and  _448
REMARK  188  A    between atoms: _448  and  _449
REMARK  189  A    between atoms: _455  and  _457
REMARK  190  A    between atoms: _457  and  _458
REMARK  191  A    between atoms: _457  and  _460
REMARK  192  A    between atoms: _460  and  _461
REMARK  193  A    between atoms: _464  and  _466
REMARK  194  A    between atoms: _466  and  _467
REMARK  195  A    between atoms: _466  and  _469
REMARK  196  A    between atoms: _469  and  _470
REMARK  197  A    between atoms: _470  and  _471
REMARK  198  A    between atoms: _474  and  _476
REMARK  199  A    between atoms: _476  and  _477
REMARK  200  A    between atoms: _476  and  _479
REMARK  201  A    between atoms: _479  and  _480
REMARK  202  A    between atoms: _485  and  _486
REMARK  203  A    between atoms: _488  and  _490
REMARK  204  A    between atoms: _490  and  _491
REMARK  205  A    between atoms: _490  and  _493
REMARK  206  A    between atoms: _493  and  _494
REMARK  207  A    between atoms: _500  and  _502
REMARK  208  A    between atoms: _502  and  _503
REMARK  209  A    between atoms: _502  and  _505
REMARK  210  A    between atoms: _505  and  _506
REMARK  211  A    between atoms: _509  and  _511
REMARK  212  A    between atoms: _511  and  _512
REMARK  213  A    between atoms: _511  and  _514
REMARK  214  A    between atoms: _514  and  _515
REMARK  215  A    between atoms: _515  and  _516
REMARK  216  A    between atoms: _516  and  _518
REMARK  217  A    between atoms: _518  and  MG_609
REMARK  218  A    between atoms: _519  and  _521
REMARK  219  A    between atoms: _521  and  _522
REMARK  220  A    between atoms: _521  and  _524
REMARK  221  A    between atoms: _524  and  _525
REMARK  222  A    between atoms: _525  and  _526
REMARK  223  A    between atoms: _528  and  _530
REMARK  224  A    between atoms: _530  and  _531
REMARK  225  A    between atoms: _530  and  _533
REMARK  226  A    between atoms: _533  and  _534
REMARK  227  A    between atoms: _539  and  _541
REMARK  228  A    between atoms: _541  and  _542
REMARK  229  A    between atoms: _541  and  _544
REMARK  230  A    between atoms: _544  and  _545
REMARK  231  A    between atoms: _545  and  _546
REMARK  232  A    between atoms: _546  and  _547
REMARK  233  A    between atoms: _556  and  _558
REMARK  234  A    between atoms: _558  and  _559
REMARK  235  A    between atoms: _558  and  _561
REMARK  236  A    between atoms: _561  and  _562
REMARK  237  A    between atoms: _562  and  _563
REMARK  238  A    between atoms: _568  and  _570
REMARK  239  A    between atoms: _570  and  _571
REMARK  240  A    between atoms: _570  and  _573
REMARK  241  A    between atoms: _573  and  _574
REMARK  242  A    between atoms: _579  and  _581
REMARK  243  A    between atoms: _581  and  _582
REMARK  244  A    between atoms: _581  and  _584
REMARK  245  A    between atoms: _584  and  _585
REMARK  246  A    between atoms: _588  and  _590
REMARK  247  A    between atoms: _590  and  _591
REMARK  248  A    between atoms: _590  and  _593
REMARK  249  A    between atoms: _593  and  _594
REMARK  250  A    between atoms: _599  and  _601
REMARK  251  A    between atoms: _601  and  _602
REMARK  252  A    between atoms: _601  and  _604
REMARK  253  A    between atoms: _604  and  _605
REMARK  254  A    between atoms: _605  and  _606
REMARK                            x       y       z     vdW  Elec       q    Type
REMARK                         _______ _______ _______ _____ _____    ______ ____
ROOT
ATOM      1  CA  ILE A   2     -29.192 -12.067   4.881  0.00  0.00    +0.148 C 
ENDROOT
BRANCH   1   3
ATOM      2  C   ASN A   1     -29.179 -10.508   2.976  0.00  0.00    +0.239 C 
ATOM      3  N   ILE A   2     -29.524 -10.782   4.242  0.00  0.00    -0.297 N 
ATOM      4  H   ILE A   2     -30.042 -10.065   4.790  0.00  0.00    +0.150 HD
ATOM      5  O   ASN A   1     -28.653 -11.343   2.230  0.00  0.00    -0.274 OA
BRANCH   2   6
ATOM      6  CA  ASN A   1     -29.449  -9.070   2.474  0.00  0.00    +0.154 C 
BRANCH   6   7
ATOM      7  N   ASN A   1     -29.062  -8.848   1.077  0.00  0.00    -0.238 NA
ATOM      8  H   ASN A   1     -29.794  -8.907   0.340  0.00  0.00    +0.142 HD
ENDBRANCH   6   7
BRANCH   6   9
ATOM      9  CB  ASN A   1     -30.914  -8.610   2.719  0.00  0.00    +0.111 C 
BRANCH   9  10
ATOM     10  CG  ASN A   1     -31.952  -9.523   2.063  0.00  0.00    +0.221 C 
ATOM     11  ND2 ASN A   1     -33.164  -8.982   1.849  0.00  0.00    -0.329 N 
ATOM     12 HD21 ASN A   1     -33.348  -7.995   2.119  0.00  0.00    +0.145 HD
ATOM     13 HD22 ASN A   1     -33.918  -9.551   1.413  0.00  0.00    +0.145 HD
ATOM     14  OD1 ASN A   1     -31.683 -10.694   1.759  0.00  0.00    -0.275 OA
ENDBRANCH   9  10
ENDBRANCH   6   9
ENDBRANCH   2   6
ENDBRANCH   1   3
BRANCH   1  15
ATOM     15  C   ILE A   2     -30.009 -13.239   4.323  0.00  0.00    +0.241 C 
ATOM     16  O   ILE A   2     -29.674 -14.401   4.579  0.00  0.00    -0.273 OA
ATOM     17  N   HIS A   3     -31.068 -12.924   3.571  0.00  0.00    -0.298 N 
ATOM     18  H   HIS A   3     -31.234 -11.926   3.331  0.00  0.00    +0.150 HD
BRANCH  17  19
ATOM     19  CA  HIS A   3     -32.006 -13.941   3.072  0.00  0.00    +0.143 C 
BRANCH  19  20
ATOM     20  C   HIS A   3     -31.710 -14.369   1.630  0.00  0.00    +0.227 C 
ATOM     21  O   HIS A   3     -32.313 -15.324   1.132  0.00  0.00    -0.286 OA
ENDBRANCH  19  20
BRANCH  19  22
ATOM     22  CB  HIS A   3     -33.448 -13.437   3.183  0.00  0.00    +0.075 C 
BRANCH  22  23
ATOM     23  CG  HIS A   3     -33.806 -12.937   4.544  0.00  0.00    +0.082 A 
ATOM     24  ND1 HIS A   3     -33.743 -13.734   5.672  0.00  0.00    -0.227 NA
ATOM     25  CE1 HIS A   3     -34.121 -13.032   6.722  0.00  0.00    +0.199 A 
ATOM     26  NE2 HIS A   3     -34.423 -11.808   6.317  0.00  0.00    -0.221 NA
ATOM     27  CD2 HIS A   3     -34.239 -11.725   4.960  0.00  0.00    +0.115 A 
ENDBRANCH  22  23
ENDBRANCH  19  22
ENDBRANCH  17  19
ENDBRANCH   1  15
BRANCH   1  28
ATOM     28  CB  ILE A   2     -29.388 -12.047   6.439  0.00  0.00    +0.027 C 
ATOM     29  CG2 ILE A   2     -28.347 -11.141   7.130  0.00  0.00    +0.002 C 
BRANCH  28  30
ATOM     30  CG1 ILE A   2     -30.832 -11.659   6.796  0.00  0.00    +0.002 C 
ATOM     31  CD1 ILE A   2     -31.203 -11.899   8.275  0.00  0.00    +0.000 C 
ENDBRANCH  28  30
ENDBRANCH   1  28
TORSDOF 12
REMARK  Name = ../refined-set-2016/3rv4/3rv4_pocket.pdb
REMARK  254 active torsions:
REMARK  status: ('A' for Active; 'I' for Inactive)
REMARK    1  A    between atoms: _1  and  _3
REMARK    2  A    between atoms: _3  and  _4
REMARK    3  A    between atoms: _3  and  _6
REMARK    4  A    between atoms: _6  and  _7
REMARK    5  A    between atoms: _7  and  _8
REMARK    6  A    between atoms: _11  and  _13
REMARK    7  A    between atoms: _13  and  _14
REMARK    8  A    between atoms: _13  and  _16
REMARK    9  A    between atoms: _16  and  _17
REMARK   10  A    between atoms: _17  and  _18
REMARK   11  A    between atoms: _18  and  _19
REMARK   12  A    between atoms: _19  and  _20
REMARK   13  A    between atoms: _24  and  _26
REMARK   14  A    between atoms: _26  and  _27
REMARK   15  A    between atoms: _26  and  _29
REMARK   16  A    between atoms: _29  and  _30
REMARK   17  A    between atoms: _33  and  _35
REMARK   18  A    between atoms: _35  and  _36
REMARK   19  A    between atoms: _35  and  _38
REMARK   20  A    between atoms: _42  and  _43
REMARK   21  A    between atoms: _49  and  _50
REMARK   22  A    between atoms: _55  and  _57
REMARK   23  A    between atoms: _57  and  _58
REMARK   24  A    between atoms: _57  and  _60
REMARK   25  A    between atoms: _63  and  _65
REMARK   26  A    between atoms: _65  and  _66
REMARK   27  A    between atoms: _65  and  _68
REMARK   28  A    between atoms: _68  and  _69
REMARK   29  A    between atoms: _72  and  _74
REMARK   30  A    between atoms: _74  and  _75
REMARK   31  A    between atoms: _74  and  _77
REMARK   32  A    between atoms: _77  and  _78
REMARK   33  A    between atoms: _81  and  _83
REMARK   34  A    between atoms: _83  and  _84
REMARK   35  A    between atoms: _83  and  _86
REMARK   36  A    between atoms: _86  and  _87
REMARK   37  A    between atoms: _87  and  _88
REMARK   38  A    between atoms: _88  and  _89
REMARK   39  A    between atoms: _89  and  _90
REMARK   40  A    between atoms: _94  and  _96
REMARK   41  A    between atoms: _96  and  _97
REMARK   42  A    between atoms: _100  and  _102
REMARK   43  A    between atoms: _102  and  _103
REMARK   44  A    between atoms: _102  and  _105
REMARK   45  A    between atoms: _105  and  _106
REMARK   46  A    between atoms: _108  and  _110
REMARK   47  A    between atoms: _110  and  _111
REMARK   48  A    between atoms: _113  and  _115
REMARK   49  A    between atoms: _115  and  _116
REMARK   50  A    between atoms: _118  and  _120
REMARK   51  A    between atoms: _120  and  _121
REMARK   52  A    between atoms: _123  and  _125
REMARK   53  A    between atoms: _125  and  _126
REMARK   54  A    between atoms: _128  and  _130
REMARK   55  A    between atoms: _130  and  _131
REMARK   56  A    between atoms: _133  and  _135
REMARK   57  A    between atoms: _135  and  _136
REMARK   58  A    between atoms: _135  and  _138
REMARK   59  A    between atoms: _138  and  _139
REMARK   60  A    between atoms: _139  and  _140
REMARK   61  A    between atoms: _140  and  _141
REMARK   62  A    between atoms: _150  and  _152
REMARK   63  A    between atoms: _152  and  _153
REMARK   64  A    between atoms: _155  and  _157
REMARK   65  A    between atoms: _157  and  _158
REMARK   66  A    between atoms: _157  and  _160
REMARK   67  A    between atoms: _160  and  _161
REMARK   68  A    between atoms: _161  and  _162
REMARK   69  A    between atoms: _164  and  _166
REMARK   70  A    between atoms: _166  and  _167
REMARK   71  A    between atoms: _166  and  _169
REMARK   72  A    between atoms: _172  and  _174
REMARK   73  A    between atoms: _174  and  _175
REMARK   74  A    between atoms: _174  and  _177
REMARK   75  A    between atoms: _177  and  _178
REMARK   76  A    between atoms: _184  and  _186
REMARK   77  A    between atoms: _186  and  _187
REMARK   78  A    between atoms: _186  and  _189
REMARK   79  A    between atoms: _189  and  _190
REMARK   80  A    between atoms: _195  and  _196
REMARK   81  A    between atoms: _198  and  _200
REMARK   82  A    between atoms: _200  and  _201
REMARK   83  A    between atoms: _200  and  _203
REMARK   84  A    between atoms: _203  and  _204
REMARK   85  A    between atoms: _204  and  _205
REMARK   86  A    between atoms: _207  and  _209
REMARK   87  A    between atoms: _209  and  _210
REMARK   88  A    between atoms: _209  and  _212
REMARK   89  A    between atoms: _212  and  _213
REMARK   90  A    between atoms: _213  and  _214
REMARK   91  A    between atoms: _217  and  _219
REMARK   92  A    between atoms: _219  and  _220
REMARK   93  A    between atoms: _219  and  _222
REMARK   94  A    between atoms: _222  and  _223
REMARK   95  A    between atoms: _223  and  _224
REMARK   96  A    between atoms: _224  and  _225
REMARK   97  A    between atoms: _225  and  _226
REMARK   98  A    between atoms: _230  and  _232
REMARK   99  A    between atoms: _232  and  _233
REMARK  100  A    between atoms: _232  and  _235
REMARK  101  A    between atoms: _235  and  _236
REMARK  102  A    between atoms: _241  and  _242
REMARK  103  A    between atoms: _244  and  _246
REMARK  104  A    between atoms: _246  and  _247
REMARK  105  A    between atoms: _246  and  _249
REMARK  106  A    between atoms: _249  and  _250
REMARK  107  A    between atoms: _253  and  _255
REMARK  108  A    between atoms: _255  and  _256
REMARK  109  A    between atoms: _255  and  _258
REMARK  110  A    between atoms: _258  and  _259
REMARK  111  A    between atoms: _259  and  _260
REMARK  112  A    between atoms: _263  and  _265
REMARK  113  A    between atoms: _265  and  _266
REMARK  114  A    between atoms: _265  and  _268
REMARK  115  A    between atoms: _268  and  _269
REMARK  116  A    between atoms: _275  and  _276
REMARK  117  A    between atoms: _281  and  _283
REMARK  118  A    between atoms: _283  and  _284
REMARK  119  A    between atoms: _283  and  _286
REMARK  120  A    between atoms: _286  and  _287
REMARK  121  A    between atoms: _287  and  _288
REMARK  122  A    between atoms: _288  and  _289
REMARK  123  A    between atoms: _298  and  _300
REMARK  124  A    between atoms: _300  and  _301
REMARK  125  A    between atoms: _300  and  _303
REMARK  126  A    between atoms: _303  and  _304
REMARK  127  A    between atoms: _309  and  _311
REMARK  128  A    between atoms: _311  and  _312
REMARK  129  A    between atoms: _311  and  _314
REMARK  130  A    between atoms: _317  and  _319
REMARK  131  A    between atoms: _319  and  _320
REMARK  132  A    between atoms: _319  and  _322
REMARK  133  A    between atoms: _322  and  _323
REMARK  134  A    between atoms: _323  and  _324
REMARK  135  A    between atoms: _327  and  _329
REMARK  136  A    between atoms: _329  and  _330
REMARK  137  A    between atoms: _329  and  _332
REMARK  138  A    between atoms: _334  and  _336
REMARK  139  A    between atoms: _336  and  _337
REMARK  140  A    between atoms: _336  and  _339
REMARK  141  A    between atoms: _339  and  _340
REMARK  142  A    between atoms: _342  and  _344
REMARK  143  A    between atoms: _344  and  _345
REMARK  144  A    between atoms: _344  and  _347
REMARK  145  A    between atoms: _347  and  _348
REMARK  146  A    between atoms: _348  and  _349
REMARK  147  A    between atoms: _351  and  _353
REMARK  148  A    between atoms: _353  and  _354
REMARK  149  A    between atoms: _353  and  _356
REMARK  150  A    between atoms: _356  and  _357
REMARK  151  A    between atoms: _357  and  _358
REMARK  152  A    between atoms: _363  and  _365
REMARK  153  A    between atoms: _365  and  _366
REMARK  154  A    between atoms: _365  and  _368
REMARK  155  A    between atoms: _368  and  _369
REMARK  156  A    between atoms: _369  and  _370
REMARK  157  A    between atoms: _370  and  _371
REMARK  158  A    between atoms: _380  and  _382
REMARK  159  A    between atoms: _382  and  _383
REMARK  160  A    between atoms: _382  and  _385
REMARK  161  A    between atoms: _385  and  _386
REMARK  162  A    between atoms: _386  and  _387
REMARK  163  A    between atoms: _387  and  _388
REMARK  164  A    between atoms: _397  and  _399
REMARK  165  A    between atoms: _399  and  _400
REMARK  166  A    between atoms: _399  and  _402
REMARK  167  A    between atoms: _402  and  _403
REMARK  168  A    between atoms: _408  and  _410
REMARK  169  A    between atoms: _410  and  _411
REMARK  170  A    between atoms: _410  and  _413
REMARK  171  A    between atoms: _413  and  _414
REMARK  172  A    between atoms: _414  and  _415
REMARK  173  A    between atoms: _420  and  _422
REMARK  174  A    between atoms: _422  and  _423
REMARK  175  A    between atoms: _422  and  _425
REMARK  176  A    between atoms: _425  and  _426
REMARK  177  A    between atoms: _426  and  _427
REMARK  178  A    between atoms: _427  and  _428
REMARK  179  A    between atoms: _428  and  _429
REMARK  180  A    between atoms: _433  and  _435
REMARK  181  A    between atoms: _435  and  _436
REMARK  182  A    between atoms: _435  and  _438
REMARK  183  A    between atoms: _438  and  _439
REMARK  184  A    between atoms: _439  and  _440
REMARK  185  A    between atoms: _443  and  _445
REMARK  186  A    between atoms: _445  and  _446
REMARK  187  A    between atoms: _445  and  _448
REMARK  188  A    between atoms: _448  and  _449
REMARK  189  A    between atoms: _455  and  _457
REMARK  190  A    between atoms: _457  and  _458
REMARK  191  A    between atoms: _457  and  _460
REMARK  192  A    between atoms: _460  and  _461
REMARK  193  A    between atoms: _464  and  _466
REMARK  194  A    between atoms: _466  and  _467
REMARK  195  A    between atoms: _466  and  _469
REMARK  196  A    between atoms: _469  and  _470
REMARK  197  A    between atoms: _470  and  _471
REMARK  198  A    between atoms: _474  and  _476
REMARK  199  A    between atoms: _476  and  _477
REMARK  200  A    between atoms: _476  and  _479
REMARK  201  A    between atoms: _479  and  _480
REMARK  202  A    between atoms: _485  and  _486
REMARK  203  A    between atoms: _488  and  _490
REMARK  204  A    between atoms: _490  and  _491
REMARK  205  A    between atoms: _490  and  _493
REMARK  206  A    between atoms: _493  and  _494
REMARK  207  A    between atoms: _500  and  _502
REMARK  208  A    between atoms: _502  and  _503
REMARK  209  A    between atoms: _502  and  _505
REMARK  210  A    between atoms: _505  and  _506
REMARK  211  A    between atoms: _509  and  _511
REMARK  212  A    between atoms: _511  and  _512
REMARK  213  A    between atoms: _511  and  _514
REMARK  214  A    between atoms: _514  and  _515
REMARK  215  A    between atoms: _515  and  _516
REMARK  216  A    between atoms: _516  and  _518
REMARK  217  A    between atoms: _518  and  MG_609
REMARK  218  A    between atoms: _519  and  _521
REMARK  219  A    between atoms: _521  and  _522
REMARK  220  A    between atoms: _521  and  _524
REMARK  221  A    between atoms: _524  and  _525
REMARK  222  A    between atoms: _525  and  _526
REMARK  223  A    between atoms: _528  and  _530
REMARK  224  A    between atoms: _530  and  _531
REMARK  225  A    between atoms: _530  and  _533
REMARK  226  A    between atoms: _533  and  _534
REMARK  227  A    between atoms: _539  and  _541
REMARK  228  A    between atoms: _541  and  _542
REMARK  229  A    between atoms: _541  and  _544
REMARK  230  A    between atoms: _544  and  _545
REMARK  231  A    between atoms: _545  and  _546
REMARK  232  A    between atoms: _546  and  _547
REMARK  233  A    between atoms: _556  and  _558
REMARK  234  A    between atoms: _558  and  _559
REMARK  235  A    between atoms: _558  and  _561
REMARK  236  A    between atoms: _561  and  _562
REMARK  237  A    between atoms: _562  and  _563
REMARK  238  A    between atoms: _568  and  _570
REMARK  239  A    between atoms: _570  and  _571
REMARK  240  A    between atoms: _570  and  _573
REMARK  241  A    between atoms: _573  and  _574
REMARK  242  A    between atoms: _579  and  _581
REMARK  243  A    between atoms: _581  and  _582
REMARK  244  A    between atoms: _581  and  _584
REMARK  245  A    between atoms: _584  and  _585
REMARK  246  A    between atoms: _588  and  _590
REMARK  247  A    between atoms: _590  and  _591
REMARK  248  A    between atoms: _590  and  _593
REMARK  249  A    between atoms: _593  and  _594
REMARK  250  A    between atoms: _599  and  _601
REMARK  251  A    between atoms: _601  and  _602
REMARK  252  A    between atoms: _601  and  _604
REMARK  253  A    between atoms: _604  and  _605
REMARK  254  A    between atoms: _605  and  _606
REMARK                            x       y       z     vdW  Elec       q    Type
REMARK                         _______ _______ _______ _____ _____    ______ ____
ROOT
ATOM      1  CA  GLU A   1     -31.138 -19.326   0.848  0.00  0.00    +0.134 C 
ENDROOT
BRANCH   1   2
ATOM      2  N   GLU A   1     -30.137 -18.262   0.701  0.00  0.00    -0.239 NA
ATOM      3  H   GLU A   1     -30.027 -17.544   1.445  0.00  0.00    +0.142 HD
ENDBRANCH   1   2
BRANCH   1   4
ATOM      4  C   GLU A   1     -32.158 -19.335  -0.273  0.00  0.00    +0.224 C 
ATOM      5  O   GLU A   1     -32.522 -20.397  -0.768  0.00  0.00    -0.287 OA
ENDBRANCH   1   4
BRANCH   1   6
ATOM      6  CB  GLU A   1     -31.801 -19.291   2.237  0.00  0.00    +0.037 C 
BRANCH   6   7
ATOM      7  CG  GLU A   1     -30.854 -19.871   3.301  0.00  0.00    +0.116 C 
BRANCH   7   8
ATOM      8  CD  GLU A   1     -31.542 -20.322   4.557  0.00  0.00    +0.365 C 
ATOM      9  OE2 GLU A   1     -30.862 -20.390   5.593  0.00  0.00    -0.246 OA
ATOM     10  OE1 GLU A   1     -32.751 -20.620   4.514  0.00  0.00    -0.246 OA
ENDBRANCH   7   8
ENDBRANCH   6   7
ENDBRANCH   1   6
TORSDOF 5
REMARK  Name = ../refined-set-2016/3rv4/3rv4_pocket.pdb
REMARK  254 active torsions:
REMARK  status: ('A' for Active; 'I' for Inactive)
REMARK    1  A    between atoms: _1  and  _3
REMARK    2  A    between atoms: _3  and  _4
REMARK    3  A    between atoms: _3  and  _6
REMARK    4  A    between atoms: _6  and  _7
REMARK    5  A    between atoms: _7  and  _8
REMARK    6  A    between atoms: _11  and  _13
REMARK    7  A    between atoms: _13  and  _14
REMARK    8  A    between atoms: _13  and  _16
REMARK    9  A    between atoms: _16  and  _17
REMARK   10  A    between atoms: _17  and  _18
REMARK   11  A    between atoms: _18  and  _19
REMARK   12  A    between atoms: _19  and  _20
REMARK   13  A    between atoms: _24  and  _26
REMARK   14  A    between atoms: _26  and  _27
REMARK   15  A    between atoms: _26  and  _29
REMARK   16  A    between atoms: _29  and  _30
REMARK   17  A    between atoms: _33  and  _35
REMARK   18  A    between atoms: _35  and  _36
REMARK   19  A    between atoms: _35  and  _38
REMARK   20  A    between atoms: _42  and  _43
REMARK   21  A    between atoms: _49  and  _50
REMARK   22  A    between atoms: _55  and  _57
REMARK   23  A    between atoms: _57  and  _58
REMARK   24  A    between atoms: _57  and  _60
REMARK   25  A    between atoms: _63  and  _65
REMARK   26  A    between atoms: _65  and  _66
REMARK   27  A    between atoms: _65  and  _68
REMARK   28  A    between atoms: _68  and  _69
REMARK   29  A    between atoms: _72  and  _74
REMARK   30  A    between atoms: _74  and  _75
REMARK   31  A    between atoms: _74  and  _77
REMARK   32  A    between atoms: _77  and  _78
REMARK   33  A    between atoms: _81  and  _83
REMARK   34  A    between atoms: _83  and  _84
REMARK   35  A    between atoms: _83  and  _86
REMARK   36  A    between atoms: _86  and  _87
REMARK   37  A    between atoms: _87  and  _88
REMARK   38  A    between atoms: _88  and  _89
REMARK   39  A    between atoms: _89  and  _90
REMARK   40  A    between atoms: _94  and  _96
REMARK   41  A    between atoms: _96  and  _97
REMARK   42  A    between atoms: _100  and  _102
REMARK   43  A    between atoms: _102  and  _103
REMARK   44  A    between atoms: _102  and  _105
REMARK   45  A    between atoms: _105  and  _106
REMARK   46  A    between atoms: _108  and  _110
REMARK   47  A    between atoms: _110  and  _111
REMARK   48  A    between atoms: _113  and  _115
REMARK   49  A    between atoms: _115  and  _116
REMARK   50  A    between atoms: _118  and  _120
REMARK   51  A    between atoms: _120  and  _121
REMARK   52  A    between atoms: _123  and  _125
REMARK   53  A    between atoms: _125  and  _126
REMARK   54  A    between atoms: _128  and  _130
REMARK   55  A    between atoms: _130  and  _131
REMARK   56  A    between atoms: _133  and  _135
REMARK   57  A    between atoms: _135  and  _136
REMARK   58  A    between atoms: _135  and  _138
REMARK   59  A    between atoms: _138  and  _139
REMARK   60  A    between atoms: _139  and  _140
REMARK   61  A    between atoms: _140  and  _141
REMARK   62  A    between atoms: _150  and  _152
REMARK   63  A    between atoms: _152  and  _153
REMARK   64  A    between atoms: _155  and  _157
REMARK   65  A    between atoms: _157  and  _158
REMARK   66  A    between atoms: _157  and  _160
REMARK   67  A    between atoms: _160  and  _161
REMARK   68  A    between atoms: _161  and  _162
REMARK   69  A    between atoms: _164  and  _166
REMARK   70  A    between atoms: _166  and  _167
REMARK   71  A    between atoms: _166  and  _169
REMARK   72  A    between atoms: _172  and  _174
REMARK   73  A    between atoms: _174  and  _175
REMARK   74  A    between atoms: _174  and  _177
REMARK   75  A    between atoms: _177  and  _178
REMARK   76  A    between atoms: _184  and  _186
REMARK   77  A    between atoms: _186  and  _187
REMARK   78  A    between atoms: _186  and  _189
REMARK   79  A    between atoms: _189  and  _190
REMARK   80  A    between atoms: _195  and  _196
REMARK   81  A    between atoms: _198  and  _200
REMARK   82  A    between atoms: _200  and  _201
REMARK   83  A    between atoms: _200  and  _203
REMARK   84  A    between atoms: _203  and  _204
REMARK   85  A    between atoms: _204  and  _205
REMARK   86  A    between atoms: _207  and  _209
REMARK   87  A    between atoms: _209  and  _210
REMARK   88  A    between atoms: _209  and  _212
REMARK   89  A    between atoms: _212  and  _213
REMARK   90  A    between atoms: _213  and  _214
REMARK   91  A    between atoms: _217  and  _219
REMARK   92  A    between atoms: _219  and  _220
REMARK   93  A    between atoms: _219  and  _222
REMARK   94  A    between atoms: _222  and  _223
REMARK   95  A    between atoms: _223  and  _224
REMARK   96  A    between atoms: _224  and  _225
REMARK   97  A    between atoms: _225  and  _226
REMARK   98  A    between atoms: _230  and  _232
REMARK   99  A    between atoms: _232  and  _233
REMARK  100  A    between atoms: _232  and  _235
REMARK  101  A    between atoms: _235  and  _236
REMARK  102  A    between atoms: _241  and  _242
REMARK  103  A    between atoms: _244  and  _246
REMARK  104  A    between atoms: _246  and  _247
REMARK  105  A    between atoms: _246  and  _249
REMARK  106  A    between atoms: _249  and  _250
REMARK  107  A    between atoms: _253  and  _255
REMARK  108  A    between atoms: _255  and  _256
REMARK  109  A    between atoms: _255  and  _258
REMARK  110  A    between atoms: _258  and  _259
REMARK  111  A    between atoms: _259  and  _260
REMARK  112  A    between atoms: _263  and  _265
REMARK  113  A    between atoms: _265  and  _266
REMARK  114  A    between atoms: _265  and  _268
REMARK  115  A    between atoms: _268  and  _269
REMARK  116  A    between atoms: _275  and  _276
REMARK  117  A    between atoms: _281  and  _283
REMARK  118  A    between atoms: _283  and  _284
REMARK  119  A    between atoms: _283  and  _286
REMARK  120  A    between atoms: _286  and  _287
REMARK  121  A    between atoms: _287  and  _288
REMARK  122  A    between atoms: _288  and  _289
REMARK  123  A    between atoms: _298  and  _300
REMARK  124  A    between atoms: _300  and  _301
REMARK  125  A    between atoms: _300  and  _303
REMARK  126  A    between atoms: _303  and  _304
REMARK  127  A    between atoms: _309  and  _311
REMARK  128  A    between atoms: _311  and  _312
REMARK  129  A    between atoms: _311  and  _314
REMARK  130  A    between atoms: _317  and  _319
REMARK  131  A    between atoms: _319  and  _320
REMARK  132  A    between atoms: _319  and  _322
REMARK  133  A    between atoms: _322  and  _323
REMARK  134  A    between atoms: _323  and  _324
REMARK  135  A    between atoms: _327  and  _329
REMARK  136  A    between atoms: _329  and  _330
REMARK  137  A    between atoms: _329  and  _332
REMARK  138  A    between atoms: _334  and  _336
REMARK  139  A    between atoms: _336  and  _337
REMARK  140  A    between atoms: _336  and  _339
REMARK  141  A    between atoms: _339  and  _340
REMARK  142  A    between atoms: _342  and  _344
REMARK  143  A    between atoms: _344  and  _345
REMARK  144  A    between atoms: _344  and  _347
REMARK  145  A    between atoms: _347  and  _348
REMARK  146  A    between atoms: _348  and  _349
REMARK  147  A    between atoms: _351  and  _353
REMARK  148  A    between atoms: _353  and  _354
REMARK  149  A    between atoms: _353  and  _356
REMARK  150  A    between atoms: _356  and  _357
REMARK  151  A    between atoms: _357  and  _358
REMARK  152  A    between atoms: _363  and  _365
REMARK  153  A    between atoms: _365  and  _366
REMARK  154  A    between atoms: _365  and  _368
REMARK  155  A    between atoms: _368  and  _369
REMARK  156  A    between atoms: _369  and  _370
REMARK  157  A    between atoms: _370  and  _371
REMARK  158  A    between atoms: _380  and  _382
REMARK  159  A    between atoms: _382  and  _383
REMARK  160  A    between atoms: _382  and  _385
REMARK  161  A    between atoms: _385  and  _386
REMARK  162  A    between atoms: _386  and  _387
REMARK  163  A    between atoms: _387  and  _388
REMARK  164  A    between atoms: _397  and  _399
REMARK  165  A    between atoms: _399  and  _400
REMARK  166  A    between atoms: _399  and  _402
REMARK  167  A    between atoms: _402  and  _403
REMARK  168  A    between atoms: _408  and  _410
REMARK  169  A    between atoms: _410  and  _411
REMARK  170  A    between atoms: _410  and  _413
REMARK  171  A    between atoms: _413  and  _414
REMARK  172  A    between atoms: _414  and  _415
REMARK  173  A    between atoms: _420  and  _422
REMARK  174  A    between atoms: _422  and  _423
REMARK  175  A    between atoms: _422  and  _425
REMARK  176  A    between atoms: _425  and  _426
REMARK  177  A    between atoms: _426  and  _427
REMARK  178  A    between atoms: _427  and  _428
REMARK  179  A    between atoms: _428  and  _429
REMARK  180  A    between atoms: _433  and  _435
REMARK  181  A    between atoms: _435  and  _436
REMARK  182  A    between atoms: _435  and  _438
REMARK  183  A    between atoms: _438  and  _439
REMARK  184  A    between atoms: _439  and  _440
REMARK  185  A    between atoms: _443  and  _445
REMARK  186  A    between atoms: _445  and  _446
REMARK  187  A    between atoms: _445  and  _448
REMARK  188  A    between atoms: _448  and  _449
REMARK  189  A    between atoms: _455  and  _457
REMARK  190  A    between atoms: _457  and  _458
REMARK  191  A    between atoms: _457  and  _460
REMARK  192  A    between atoms: _460  and  _461
REMARK  193  A    between atoms: _464  and  _466
REMARK  194  A    between atoms: _466  and  _467
REMARK  195  A    between atoms: _466  and  _469
REMARK  196  A    between atoms: _469  and  _470
REMARK  197  A    between atoms: _470  and  _471
REMARK  198  A    between atoms: _474  and  _476
REMARK  199  A    between atoms: _476  and  _477
REMARK  200  A    between atoms: _476  and  _479
REMARK  201  A    between atoms: _479  and  _480
REMARK  202  A    between atoms: _485  and  _486
REMARK  203  A    between atoms: _488  and  _490
REMARK  204  A    between atoms: _490  and  _491
REMARK  205  A    between atoms: _490  and  _493
REMARK  206  A    between atoms: _493  and  _494
REMARK  207  A    between atoms: _500  and  _502
REMARK  208  A    between atoms: _502  and  _503
REMARK  209  A    between atoms: _502  and  _505
REMARK  210  A    between atoms: _505  and  _506
REMARK  211  A    between atoms: _509  and  _511
REMARK  212  A    between atoms: _511  and  _512
REMARK  213  A    between atoms: _511  and  _514
REMARK  214  A    between atoms: _514  and  _515
REMARK  215  A    between atoms: _515  and  _516
REMARK  216  A    between atoms: _516  and  _518
REMARK  217  A    between atoms: _518  and  MG_609
REMARK  218  A    between atoms: _519  and  _521
REMARK  219  A    between atoms: _521  and  _522
REMARK  220  A    between atoms: _521  and  _524
REMARK  221  A    between atoms: _524  and  _525
REMARK  222  A    between atoms: _525  and  _526
REMARK  223  A    between atoms: _528  and  _530
REMARK  224  A    between atoms: _530  and  _531
REMARK  225  A    between atoms: _530  and  _533
REMARK  226  A    between atoms: _533  and  _534
REMARK  227  A    between atoms: _539  and  _541
REMARK  228  A    between atoms: _541  and  _542
REMARK  229  A    between atoms: _541  and  _544
REMARK  230  A    between atoms: _544  and  _545
REMARK  231  A    between atoms: _545  and  _546
REMARK  232  A    between atoms: _546  and  _547
REMARK  233  A    between atoms: _556  and  _558
REMARK  234  A    between atoms: _558  and  _559
REMARK  235  A    between atoms: _558  and  _561
REMARK  236  A    between atoms: _561  and  _562
REMARK  237  A    between atoms: _562  and  _563
REMARK  238  A    between atoms: _568  and  _570
REMARK  239  A    between atoms: _570  and  _571
REMARK  240  A    between atoms: _570  and  _573
REMARK  241  A    between atoms: _573  and  _574
REMARK  242  A    between atoms: _579  and  _581
REMARK  243  A    between atoms: _581  and  _582
REMARK  244  A    between atoms: _581  and  _584
REMARK  245  A    between atoms: _584  and  _585
REMARK  246  A    between atoms: _588  and  _590
REMARK  247  A    between atoms: _590  and  _591
REMARK  248  A    between atoms: _590  and  _593
REMARK  249  A    between atoms: _593  and  _594
REMARK  250  A    between atoms: _599  and  _601
REMARK  251  A    between atoms: _601  and  _602
REMARK  252  A    between atoms: _601  and  _604
REMARK  253  A    between atoms: _604  and  _605
REMARK  254  A    between atoms: _605  and  _606
REMARK                            x       y       z     vdW  Elec       q    Type
REMARK                         _______ _______ _______ _____ _____    ______ ____
ROOT
ATOM      1 CS   UNL     1     -23.024 -14.532  22.435  0.00  0.00    +0.000 Cs
ATOM      2  O   UNL     1     -20.918 -14.639  23.331  0.00  0.00    +0.000 OA
ENDROOT
TORSDOF 0
REMARK  Name = ../refined-set-2016/3rv4/3rv4_pocket.pdb
REMARK  254 active torsions:
REMARK  status: ('A' for Active; 'I' for Inactive)
REMARK    1  A    between atoms: _1  and  _3
REMARK    2  A    between atoms: _3  and  _4
REMARK    3  A    between atoms: _3  and  _6
REMARK    4  A    between atoms: _6  and  _7
REMARK    5  A    between atoms: _7  and  _8
REMARK    6  A    between atoms: _11  and  _13
REMARK    7  A    between atoms: _13  and  _14
REMARK    8  A    between atoms: _13  and  _16
REMARK    9  A    between atoms: _16  and  _17
REMARK   10  A    between atoms: _17  and  _18
REMARK   11  A    between atoms: _18  and  _19
REMARK   12  A    between atoms: _19  and  _20
REMARK   13  A    between atoms: _24  and  _26
REMARK   14  A    between atoms: _26  and  _27
REMARK   15  A    between atoms: _26  and  _29
REMARK   16  A    between atoms: _29  and  _30
REMARK   17  A    between atoms: _33  and  _35
REMARK   18  A    between atoms: _35  and  _36
REMARK   19  A    between atoms: _35  and  _38
REMARK   20  A    between atoms: _42  and  _43
REMARK   21  A    between atoms: _49  and  _50
REMARK   22  A    between atoms: _55  and  _57
REMARK   23  A    between atoms: _57  and  _58
REMARK   24  A    between atoms: _57  and  _60
REMARK   25  A    between atoms: _63  and  _65
REMARK   26  A    between atoms: _65  and  _66
REMARK   27  A    between atoms: _65  and  _68
REMARK   28  A    between atoms: _68  and  _69
REMARK   29  A    between atoms: _72  and  _74
REMARK   30  A    between atoms: _74  and  _75
REMARK   31  A    between atoms: _74  and  _77
REMARK   32  A    between atoms: _77  and  _78
REMARK   33  A    between atoms: _81  and  _83
REMARK   34  A    between atoms: _83  and  _84
REMARK   35  A    between atoms: _83  and  _86
REMARK   36  A    between atoms: _86  and  _87
REMARK   37  A    between atoms: _87  and  _88
REMARK   38  A    between atoms: _88  and  _89
REMARK   39  A    between atoms: _89  and  _90
REMARK   40  A    between atoms: _94  and  _96
REMARK   41  A    between atoms: _96  and  _97
REMARK   42  A    between atoms: _100  and  _102
REMARK   43  A    between atoms: _102  and  _103
REMARK   44  A    between atoms: _102  and  _105
REMARK   45  A    between atoms: _105  and  _106
REMARK   46  A    between atoms: _108  and  _110
REMARK   47  A    between atoms: _110  and  _111
REMARK   48  A    between atoms: _113  and  _115
REMARK   49  A    between atoms: _115  and  _116
REMARK   50  A    between atoms: _118  and  _120
REMARK   51  A    between atoms: _120  and  _121
REMARK   52  A    between atoms: _123  and  _125
REMARK   53  A    between atoms: _125  and  _126
REMARK   54  A    between atoms: _128  and  _130
REMARK   55  A    between atoms: _130  and  _131
REMARK   56  A    between atoms: _133  and  _135
REMARK   57  A    between atoms: _135  and  _136
REMARK   58  A    between atoms: _135  and  _138
REMARK   59  A    between atoms: _138  and  _139
REMARK   60  A    between atoms: _139  and  _140
REMARK   61  A    between atoms: _140  and  _141
REMARK   62  A    between atoms: _150  and  _152
REMARK   63  A    between atoms: _152  and  _153
REMARK   64  A    between atoms: _155  and  _157
REMARK   65  A    between atoms: _157  and  _158
REMARK   66  A    between atoms: _157  and  _160
REMARK   67  A    between atoms: _160  and  _161
REMARK   68  A    between atoms: _161  and  _162
REMARK   69  A    between atoms: _164  and  _166
REMARK   70  A    between atoms: _166  and  _167
REMARK   71  A    between atoms: _166  and  _169
REMARK   72  A    between atoms: _172  and  _174
REMARK   73  A    between atoms: _174  and  _175
REMARK   74  A    between atoms: _174  and  _177
REMARK   75  A    between atoms: _177  and  _178
REMARK   76  A    between atoms: _184  and  _186
REMARK   77  A    between atoms: _186  and  _187
REMARK   78  A    between atoms: _186  and  _189
REMARK   79  A    between atoms: _189  and  _190
REMARK   80  A    between atoms: _195  and  _196
REMARK   81  A    between atoms: _198  and  _200
REMARK   82  A    between atoms: _200  and  _201
REMARK   83  A    between atoms: _200  and  _203
REMARK   84  A    between atoms: _203  and  _204
REMARK   85  A    between atoms: _204  and  _205
REMARK   86  A    between atoms: _207  and  _209
REMARK   87  A    between atoms: _209  and  _210
REMARK   88  A    between atoms: _209  and  _212
REMARK   89  A    between atoms: _212  and  _213
REMARK   90  A    between atoms: _213  and  _214
REMARK   91  A    between atoms: _217  and  _219
REMARK   92  A    between atoms: _219  and  _220
REMARK   93  A    between atoms: _219  and  _222
REMARK   94  A    between atoms: _222  and  _223
REMARK   95  A    between atoms: _223  and  _224
REMARK   96  A    between atoms: _224  and  _225
REMARK   97  A    between atoms: _225  and  _226
REMARK   98  A    between atoms: _230  and  _232
REMARK   99  A    between atoms: _232  and  _233
REMARK  100  A    between atoms: _232  and  _235
REMARK  101  A    between atoms: _235  and  _236
REMARK  102  A    between atoms: _241  and  _242
REMARK  103  A    between atoms: _244  and  _246
REMARK  104  A    between atoms: _246  and  _247
REMARK  105  A    between atoms: _246  and  _249
REMARK  106  A    between atoms: _249  and  _250
REMARK  107  A    between atoms: _253  and  _255
REMARK  108  A    between atoms: _255  and  _256
REMARK  109  A    between atoms: _255  and  _258
REMARK  110  A    between atoms: _258  and  _259
REMARK  111  A    between atoms: _259  and  _260
REMARK  112  A    between atoms: _263  and  _265
REMARK  113  A    between atoms: _265  and  _266
REMARK  114  A    between atoms: _265  and  _268
REMARK  115  A    between atoms: _268  and  _269
REMARK  116  A    between atoms: _275  and  _276
REMARK  117  A    between atoms: _281  and  _283
REMARK  118  A    between atoms: _283  and  _284
REMARK  119  A    between atoms: _283  and  _286
REMARK  120  A    between atoms: _286  and  _287
REMARK  121  A    between atoms: _287  and  _288
REMARK  122  A    between atoms: _288  and  _289
REMARK  123  A    between atoms: _298  and  _300
REMARK  124  A    between atoms: _300  and  _301
REMARK  125  A    between atoms: _300  and  _303
REMARK  126  A    between atoms: _303  and  _304
REMARK  127  A    between atoms: _309  and  _311
REMARK  128  A    between atoms: _311  and  _312
REMARK  129  A    between atoms: _311  and  _314
REMARK  130  A    between atoms: _317  and  _319
REMARK  131  A    between atoms: _319  and  _320
REMARK  132  A    between atoms: _319  and  _322
REMARK  133  A    between atoms: _322  and  _323
REMARK  134  A    between atoms: _323  and  _324
REMARK  135  A    between atoms: _327  and  _329
REMARK  136  A    between atoms: _329  and  _330
REMARK  137  A    between atoms: _329  and  _332
REMARK  138  A    between atoms: _334  and  _336
REMARK  139  A    between atoms: _336  and  _337
REMARK  140  A    between atoms: _336  and  _339
REMARK  141  A    between atoms: _339  and  _340
REMARK  142  A    between atoms: _342  and  _344
REMARK  143  A    between atoms: _344  and  _345
REMARK  144  A    between atoms: _344  and  _347
REMARK  145  A    between atoms: _347  and  _348
REMARK  146  A    between atoms: _348  and  _349
REMARK  147  A    between atoms: _351  and  _353
REMARK  148  A    between atoms: _353  and  _354
REMARK  149  A    between atoms: _353  and  _356
REMARK  150  A    between atoms: _356  and  _357
REMARK  151  A    between atoms: _357  and  _358
REMARK  152  A    between atoms: _363  and  _365
REMARK  153  A    between atoms: _365  and  _366
REMARK  154  A    between atoms: _365  and  _368
REMARK  155  A    between atoms: _368  and  _369
REMARK  156  A    between atoms: _369  and  _370
REMARK  157  A    between atoms: _370  and  _371
REMARK  158  A    between atoms: _380  and  _382
REMARK  159  A    between atoms: _382  and  _383
REMARK  160  A    between atoms: _382  and  _385
REMARK  161  A    between atoms: _385  and  _386
REMARK  162  A    between atoms: _386  and  _387
REMARK  163  A    between atoms: _387  and  _388
REMARK  164  A    between atoms: _397  and  _399
REMARK  165  A    between atoms: _399  and  _400
REMARK  166  A    between atoms: _399  and  _402
REMARK  167  A    between atoms: _402  and  _403
REMARK  168  A    between atoms: _408  and  _410
REMARK  169  A    between atoms: _410  and  _411
REMARK  170  A    between atoms: _410  and  _413
REMARK  171  A    between atoms: _413  and  _414
REMARK  172  A    between atoms: _414  and  _415
REMARK  173  A    between atoms: _420  and  _422
REMARK  174  A    between atoms: _422  and  _423
REMARK  175  A    between atoms: _422  and  _425
REMARK  176  A    between atoms: _425  and  _426
REMARK  177  A    between atoms: _426  and  _427
REMARK  178  A    between atoms: _427  and  _428
REMARK  179  A    between atoms: _428  and  _429
REMARK  180  A    between atoms: _433  and  _435
REMARK  181  A    between atoms: _435  and  _436
REMARK  182  A    between atoms: _435  and  _438
REMARK  183  A    between atoms: _438  and  _439
REMARK  184  A    between atoms: _439  and  _440
REMARK  185  A    between atoms: _443  and  _445
REMARK  186  A    between atoms: _445  and  _446
REMARK  187  A    between atoms: _445  and  _448
REMARK  188  A    between atoms: _448  and  _449
REMARK  189  A    between atoms: _455  and  _457
REMARK  190  A    between atoms: _457  and  _458
REMARK  191  A    between atoms: _457  and  _460
REMARK  192  A    between atoms: _460  and  _461
REMARK  193  A    between atoms: _464  and  _466
REMARK  194  A    between atoms: _466  and  _467
REMARK  195  A    between atoms: _466  and  _469
REMARK  196  A    between atoms: _469  and  _470
REMARK  197  A    between atoms: _470  and  _471
REMARK  198  A    between atoms: _474  and  _476
REMARK  199  A    between atoms: _476  and  _477
REMARK  200  A    between atoms: _476  and  _479
REMARK  201  A    between atoms: _479  and  _480
REMARK  202  A    between atoms: _485  and  _486
REMARK  203  A    between atoms: _488  and  _490
REMARK  204  A    between atoms: _490  and  _491
REMARK  205  A    between atoms: _490  and  _493
REMARK  206  A    between atoms: _493  and  _494
REMARK  207  A    between atoms: _500  and  _502
REMARK  208  A    between atoms: _502  and  _503
REMARK  209  A    between atoms: _502  and  _505
REMARK  210  A    between atoms: _505  and  _506
REMARK  211  A    between atoms: _509  and  _511
REMARK  212  A    between atoms: _511  and  _512
REMARK  213  A    between atoms: _511  and  _514
REMARK  214  A    between atoms: _514  and  _515
REMARK  215  A    between atoms: _515  and  _516
REMARK  216  A    between atoms: _516  and  _518
REMARK  217  A    between atoms: _518  and  MG_609
REMARK  218  A    between atoms: _519  and  _521
REMARK  219  A    between atoms: _521  and  _522
REMARK  220  A    between atoms: _521  and  _524
REMARK  221  A    between atoms: _524  and  _525
REMARK  222  A    between atoms: _525  and  _526
REMARK  223  A    between atoms: _528  and  _530
REMARK  224  A    between atoms: _530  and  _531
REMARK  225  A    between atoms: _530  and  _533
REMARK  226  A    between atoms: _533  and  _534
REMARK  227  A    between atoms: _539  and  _541
REMARK  228  A    between atoms: _541  and  _542
REMARK  229  A    between atoms: _541  and  _544
REMARK  230  A    between atoms: _544  and  _545
REMARK  231  A    between atoms: _545  and  _546
REMARK  232  A    between atoms: _546  and  _547
REMARK  233  A    between atoms: _556  and  _558
REMARK  234  A    between atoms: _558  and  _559
REMARK  235  A    between atoms: _558  and  _561
REMARK  236  A    between atoms: _561  and  _562
REMARK  237  A    between atoms: _562  and  _563
REMARK  238  A    between atoms: _568  and  _570
REMARK  239  A    between atoms: _570  and  _571
REMARK  240  A    between atoms: _570  and  _573
REMARK  241  A    between atoms: _573  and  _574
REMARK  242  A    between atoms: _579  and  _581
REMARK  243  A    between atoms: _581  and  _582
REMARK  244  A    between atoms: _581  and  _584
REMARK  245  A    between atoms: _584  and  _585
REMARK  246  A    between atoms: _588  and  _590
REMARK  247  A    between atoms: _590  and  _591
REMARK  248  A    between atoms: _590  and  _593
REMARK  249  A    between atoms: _593  and  _594
REMARK  250  A    between atoms: _599  and  _601
REMARK  251  A    between atoms: _601  and  _602
REMARK  252  A    between atoms: _601  and  _604
REMARK  253  A    between atoms: _604  and  _605
REMARK  254  A    between atoms: _605  and  _606
REMARK                            x       y       z     vdW  Elec       q    Type
REMARK                         _______ _______ _______ _____ _____    ______ ____
ROOT
ATOM      1  O   HOH     1     -27.351 -11.037  22.539  0.00  0.00    +0.000 OA
ENDROOT
TORSDOF 0
REMARK  Name = ../refined-set-2016/3rv4/3rv4_pocket.pdb
REMARK  254 active torsions:
REMARK  status: ('A' for Active; 'I' for Inactive)
REMARK    1  A    between atoms: _1  and  _3
REMARK    2  A    between atoms: _3  and  _4
REMARK    3  A    between atoms: _3  and  _6
REMARK    4  A    between atoms: _6  and  _7
REMARK    5  A    between atoms: _7  and  _8
REMARK    6  A    between atoms: _11  and  _13
REMARK    7  A    between atoms: _13  and  _14
REMARK    8  A    between atoms: _13  and  _16
REMARK    9  A    between atoms: _16  and  _17
REMARK   10  A    between atoms: _17  and  _18
REMARK   11  A    between atoms: _18  and  _19
REMARK   12  A    between atoms: _19  and  _20
REMARK   13  A    between atoms: _24  and  _26
REMARK   14  A    between atoms: _26  and  _27
REMARK   15  A    between atoms: _26  and  _29
REMARK   16  A    between atoms: _29  and  _30
REMARK   17  A    between atoms: _33  and  _35
REMARK   18  A    between atoms: _35  and  _36
REMARK   19  A    between atoms: _35  and  _38
REMARK   20  A    between atoms: _42  and  _43
REMARK   21  A    between atoms: _49  and  _50
REMARK   22  A    between atoms: _55  and  _57
REMARK   23  A    between atoms: _57  and  _58
REMARK   24  A    between atoms: _57  and  _60
REMARK   25  A    between atoms: _63  and  _65
REMARK   26  A    between atoms: _65  and  _66
REMARK   27  A    between atoms: _65  and  _68
REMARK   28  A    between atoms: _68  and  _69
REMARK   29  A    between atoms: _72  and  _74
REMARK   30  A    between atoms: _74  and  _75
REMARK   31  A    between atoms: _74  and  _77
REMARK   32  A    between atoms: _77  and  _78
REMARK   33  A    between atoms: _81  and  _83
REMARK   34  A    between atoms: _83  and  _84
REMARK   35  A    between atoms: _83  and  _86
REMARK   36  A    between atoms: _86  and  _87
REMARK   37  A    between atoms: _87  and  _88
REMARK   38  A    between atoms: _88  and  _89
REMARK   39  A    between atoms: _89  and  _90
REMARK   40  A    between atoms: _94  and  _96
REMARK   41  A    between atoms: _96  and  _97
REMARK   42  A    between atoms: _100  and  _102
REMARK   43  A    between atoms: _102  and  _103
REMARK   44  A    between atoms: _102  and  _105
REMARK   45  A    between atoms: _105  and  _106
REMARK   46  A    between atoms: _108  and  _110
REMARK   47  A    between atoms: _110  and  _111
REMARK   48  A    between atoms: _113  and  _115
REMARK   49  A    between atoms: _115  and  _116
REMARK   50  A    between atoms: _118  and  _120
REMARK   51  A    between atoms: _120  and  _121
REMARK   52  A    between atoms: _123  and  _125
REMARK   53  A    between atoms: _125  and  _126
REMARK   54  A    between atoms: _128  and  _130
REMARK   55  A    between atoms: _130  and  _131
REMARK   56  A    between atoms: _133  and  _135
REMARK   57  A    between atoms: _135  and  _136
REMARK   58  A    between atoms: _135  and  _138
REMARK   59  A    between atoms: _138  and  _139
REMARK   60  A    between atoms: _139  and  _140
REMARK   61  A    between atoms: _140  and  _141
REMARK   62  A    between atoms: _150  and  _152
REMARK   63  A    between atoms: _152  and  _153
REMARK   64  A    between atoms: _155  and  _157
REMARK   65  A    between atoms: _157  and  _158
REMARK   66  A    between atoms: _157  and  _160
REMARK   67  A    between atoms: _160  and  _161
REMARK   68  A    between atoms: _161  and  _162
REMARK   69  A    between atoms: _164  and  _166
REMARK   70  A    between atoms: _166  and  _167
REMARK   71  A    between atoms: _166  and  _169
REMARK   72  A    between atoms: _172  and  _174
REMARK   73  A    between atoms: _174  and  _175
REMARK   74  A    between atoms: _174  and  _177
REMARK   75  A    between atoms: _177  and  _178
REMARK   76  A    between atoms: _184  and  _186
REMARK   77  A    between atoms: _186  and  _187
REMARK   78  A    between atoms: _186  and  _189
REMARK   79  A    between atoms: _189  and  _190
REMARK   80  A    between atoms: _195  and  _196
REMARK   81  A    between atoms: _198  and  _200
REMARK   82  A    between atoms: _200  and  _201
REMARK   83  A    between atoms: _200  and  _203
REMARK   84  A    between atoms: _203  and  _204
REMARK   85  A    between atoms: _204  and  _205
REMARK   86  A    between atoms: _207  and  _209
REMARK   87  A    between atoms: _209  and  _210
REMARK   88  A    between atoms: _209  and  _212
REMARK   89  A    between atoms: _212  and  _213
REMARK   90  A    between atoms: _213  and  _214
REMARK   91  A    between atoms: _217  and  _219
REMARK   92  A    between atoms: _219  and  _220
REMARK   93  A    between atoms: _219  and  _222
REMARK   94  A    between atoms: _222  and  _223
REMARK   95  A    between atoms: _223  and  _224
REMARK   96  A    between atoms: _224  and  _225
REMARK   97  A    between atoms: _225  and  _226
REMARK   98  A    between atoms: _230  and  _232
REMARK   99  A    between atoms: _232  and  _233
REMARK  100  A    between atoms: _232  and  _235
REMARK  101  A    between atoms: _235  and  _236
REMARK  102  A    between atoms: _241  and  _242
REMARK  103  A    between atoms: _244  and  _246
REMARK  104  A    between atoms: _246  and  _247
REMARK  105  A    between atoms: _246  and  _249
REMARK  106  A    between atoms: _249  and  _250
REMARK  107  A    between atoms: _253  and  _255
REMARK  108  A    between atoms: _255  and  _256
REMARK  109  A    between atoms: _255  and  _258
REMARK  110  A    between atoms: _258  and  _259
REMARK  111  A    between atoms: _259  and  _260
REMARK  112  A    between atoms: _263  and  _265
REMARK  113  A    between atoms: _265  and  _266
REMARK  114  A    between atoms: _265  and  _268
REMARK  115  A    between atoms: _268  and  _269
REMARK  116  A    between atoms: _275  and  _276
REMARK  117  A    between atoms: _281  and  _283
REMARK  118  A    between atoms: _283  and  _284
REMARK  119  A    between atoms: _283  and  _286
REMARK  120  A    between atoms: _286  and  _287
REMARK  121  A    between atoms: _287  and  _288
REMARK  122  A    between atoms: _288  and  _289
REMARK  123  A    between atoms: _298  and  _300
REMARK  124  A    between atoms: _300  and  _301
REMARK  125  A    between atoms: _300  and  _303
REMARK  126  A    between atoms: _303  and  _304
REMARK  127  A    between atoms: _309  and  _311
REMARK  128  A    between atoms: _311  and  _312
REMARK  129  A    between atoms: _311  and  _314
REMARK  130  A    between atoms: _317  and  _319
REMARK  131  A    between atoms: _319  and  _320
REMARK  132  A    between atoms: _319  and  _322
REMARK  133  A    between atoms: _322  and  _323
REMARK  134  A    between atoms: _323  and  _324
REMARK  135  A    between atoms: _327  and  _329
REMARK  136  A    between atoms: _329  and  _330
REMARK  137  A    between atoms: _329  and  _332
REMARK  138  A    between atoms: _334  and  _336
REMARK  139  A    between atoms: _336  and  _337
REMARK  140  A    between atoms: _336  and  _339
REMARK  141  A    between atoms: _339  and  _340
REMARK  142  A    between atoms: _342  and  _344
REMARK  143  A    between atoms: _344  and  _345
REMARK  144  A    between atoms: _344  and  _347
REMARK  145  A    between atoms: _347  and  _348
REMARK  146  A    between atoms: _348  and  _349
REMARK  147  A    between atoms: _351  and  _353
REMARK  148  A    between atoms: _353  and  _354
REMARK  149  A    between atoms: _353  and  _356
REMARK  150  A    between atoms: _356  and  _357
REMARK  151  A    between atoms: _357  and  _358
REMARK  152  A    between atoms: _363  and  _365
REMARK  153  A    between atoms: _365  and  _366
REMARK  154  A    between atoms: _365  and  _368
REMARK  155  A    between atoms: _368  and  _369
REMARK  156  A    between atoms: _369  and  _370
REMARK  157  A    between atoms: _370  and  _371
REMARK  158  A    between atoms: _380  and  _382
REMARK  159  A    between atoms: _382  and  _383
REMARK  160  A    between atoms: _382  and  _385
REMARK  161  A    between atoms: _385  and  _386
REMARK  162  A    between atoms: _386  and  _387
REMARK  163  A    between atoms: _387  and  _388
REMARK  164  A    between atoms: _397  and  _399
REMARK  165  A    between atoms: _399  and  _400
REMARK  166  A    between atoms: _399  and  _402
REMARK  167  A    between atoms: _402  and  _403
REMARK  168  A    between atoms: _408  and  _410
REMARK  169  A    between atoms: _410  and  _411
REMARK  170  A    between atoms: _410  and  _413
REMARK  171  A    between atoms: _413  and  _414
REMARK  172  A    between atoms: _414  and  _415
REMARK  173  A    between atoms: _420  and  _422
REMARK  174  A    between atoms: _422  and  _423
REMARK  175  A    between atoms: _422  and  _425
REMARK  176  A    between atoms: _425  and  _426
REMARK  177  A    between atoms: _426  and  _427
REMARK  178  A    between atoms: _427  and  _428
REMARK  179  A    between atoms: _428  and  _429
REMARK  180  A    between atoms: _433  and  _435
REMARK  181  A    between atoms: _435  and  _436
REMARK  182  A    between atoms: _435  and  _438
REMARK  183  A    between atoms: _438  and  _439
REMARK  184  A    between atoms: _439  and  _440
REMARK  185  A    between atoms: _443  and  _445
REMARK  186  A    between atoms: _445  and  _446
REMARK  187  A    between atoms: _445  and  _448
REMARK  188  A    between atoms: _448  and  _449
REMARK  189  A    between atoms: _455  and  _457
REMARK  190  A    between atoms: _457  and  _458
REMARK  191  A    between atoms: _457  and  _460
REMARK  192  A    between atoms: _460  and  _461
REMARK  193  A    between atoms: _464  and  _466
REMARK  194  A    between atoms: _466  and  _467
REMARK  195  A    between atoms: _466  and  _469
REMARK  196  A    between atoms: _469  and  _470
REMARK  197  A    between atoms: _470  and  _471
REMARK  198  A    between atoms: _474  and  _476
REMARK  199  A    between atoms: _476  and  _477
REMARK  200  A    between atoms: _476  and  _479
REMARK  201  A    between atoms: _479  and  _480
REMARK  202  A    between atoms: _485  and  _486
REMARK  203  A    between atoms: _488  and  _490
REMARK  204  A    between atoms: _490  and  _491
REMARK  205  A    between atoms: _490  and  _493
REMARK  206  A    between atoms: _493  and  _494
REMARK  207  A    between atoms: _500  and  _502
REMARK  208  A    between atoms: _502  and  _503
REMARK  209  A    between atoms: _502  and  _505
REMARK  210  A    between atoms: _505  and  _506
REMARK  211  A    between atoms: _509  and  _511
REMARK  212  A    between atoms: _511  and  _512
REMARK  213  A    between atoms: _511  and  _514
REMARK  214  A    between atoms: _514  and  _515
REMARK  215  A    between atoms: _515  and  _516
REMARK  216  A    between atoms: _516  and  _518
REMARK  217  A    between atoms: _518  and  MG_609
REMARK  218  A    between atoms: _519  and  _521
REMARK  219  A    between atoms: _521  and  _522
REMARK  220  A    between atoms: _521  and  _524
REMARK  221  A    between atoms: _524  and  _525
REMARK  222  A    between atoms: _525  and  _526
REMARK  223  A    between atoms: _528  and  _530
REMARK  224  A    between atoms: _530  and  _531
REMARK  225  A    between atoms: _530  and  _533
REMARK  226  A    between atoms: _533  and  _534
REMARK  227  A    between atoms: _539  and  _541
REMARK  228  A    between atoms: _541  and  _542
REMARK  229  A    between atoms: _541  and  _544
REMARK  230  A    between atoms: _544  and  _545
REMARK  231  A    between atoms: _545  and  _546
REMARK  232  A    between atoms: _546  and  _547
REMARK  233  A    between atoms: _556  and  _558
REMARK  234  A    between atoms: _558  and  _559
REMARK  235  A    between atoms: _558  and  _561
REMARK  236  A    between atoms: _561  and  _562
REMARK  237  A    between atoms: _562  and  _563
REMARK  238  A    between atoms: _568  and  _570
REMARK  239  A    between atoms: _570  and  _571
REMARK  240  A    between atoms: _570  and  _573
REMARK  241  A    between atoms: _573  and  _574
REMARK  242  A    between atoms: _579  and  _581
REMARK  243  A    between atoms: _581  and  _582
REMARK  244  A    between atoms: _581  and  _584
REMARK  245  A    between atoms: _584  and  _585
REMARK  246  A    between atoms: _588  and  _590
REMARK  247  A    between atoms: _590  and  _591
REMARK  248  A    between atoms: _590  and  _593
REMARK  249  A    between atoms: _593  and  _594
REMARK  250  A    between atoms: _599  and  _601
REMARK  251  A    between atoms: _601  and  _602
REMARK  252  A    between atoms: _601  and  _604
REMARK  253  A    between atoms: _604  and  _605
REMARK  254  A    between atoms: _605  and  _606
REMARK                            x       y       z     vdW  Elec       q    Type
REMARK                         _______ _______ _______ _____ _____    ______ ____
ROOT
ATOM      1  O   HOH     1     -29.613 -16.671   3.013  0.00  0.00    +0.000 OA
ENDROOT
TORSDOF 0
REMARK  Name = ../refined-set-2016/3rv4/3rv4_pocket.pdb
REMARK  254 active torsions:
REMARK  status: ('A' for Active; 'I' for Inactive)
REMARK    1  A    between atoms: _1  and  _3
REMARK    2  A    between atoms: _3  and  _4
REMARK    3  A    between atoms: _3  and  _6
REMARK    4  A    between atoms: _6  and  _7
REMARK    5  A    between atoms: _7  and  _8
REMARK    6  A    between atoms: _11  and  _13
REMARK    7  A    between atoms: _13  and  _14
REMARK    8  A    between atoms: _13  and  _16
REMARK    9  A    between atoms: _16  and  _17
REMARK   10  A    between atoms: _17  and  _18
REMARK   11  A    between atoms: _18  and  _19
REMARK   12  A    between atoms: _19  and  _20
REMARK   13  A    between atoms: _24  and  _26
REMARK   14  A    between atoms: _26  and  _27
REMARK   15  A    between atoms: _26  and  _29
REMARK   16  A    between atoms: _29  and  _30
REMARK   17  A    between atoms: _33  and  _35
REMARK   18  A    between atoms: _35  and  _36
REMARK   19  A    between atoms: _35  and  _38
REMARK   20  A    between atoms: _42  and  _43
REMARK   21  A    between atoms: _49  and  _50
REMARK   22  A    between atoms: _55  and  _57
REMARK   23  A    between atoms: _57  and  _58
REMARK   24  A    between atoms: _57  and  _60
REMARK   25  A    between atoms: _63  and  _65
REMARK   26  A    between atoms: _65  and  _66
REMARK   27  A    between atoms: _65  and  _68
REMARK   28  A    between atoms: _68  and  _69
REMARK   29  A    between atoms: _72  and  _74
REMARK   30  A    between atoms: _74  and  _75
REMARK   31  A    between atoms: _74  and  _77
REMARK   32  A    between atoms: _77  and  _78
REMARK   33  A    between atoms: _81  and  _83
REMARK   34  A    between atoms: _83  and  _84
REMARK   35  A    between atoms: _83  and  _86
REMARK   36  A    between atoms: _86  and  _87
REMARK   37  A    between atoms: _87  and  _88
REMARK   38  A    between atoms: _88  and  _89
REMARK   39  A    between atoms: _89  and  _90
REMARK   40  A    between atoms: _94  and  _96
REMARK   41  A    between atoms: _96  and  _97
REMARK   42  A    between atoms: _100  and  _102
REMARK   43  A    between atoms: _102  and  _103
REMARK   44  A    between atoms: _102  and  _105
REMARK   45  A    between atoms: _105  and  _106
REMARK   46  A    between atoms: _108  and  _110
REMARK   47  A    between atoms: _110  and  _111
REMARK   48  A    between atoms: _113  and  _115
REMARK   49  A    between atoms: _115  and  _116
REMARK   50  A    between atoms: _118  and  _120
REMARK   51  A    between atoms: _120  and  _121
REMARK   52  A    between atoms: _123  and  _125
REMARK   53  A    between atoms: _125  and  _126
REMARK   54  A    between atoms: _128  and  _130
REMARK   55  A    between atoms: _130  and  _131
REMARK   56  A    between atoms: _133  and  _135
REMARK   57  A    between atoms: _135  and  _136
REMARK   58  A    between atoms: _135  and  _138
REMARK   59  A    between atoms: _138  and  _139
REMARK   60  A    between atoms: _139  and  _140
REMARK   61  A    between atoms: _140  and  _141
REMARK   62  A    between atoms: _150  and  _152
REMARK   63  A    between atoms: _152  and  _153
REMARK   64  A    between atoms: _155  and  _157
REMARK   65  A    between atoms: _157  and  _158
REMARK   66  A    between atoms: _157  and  _160
REMARK   67  A    between atoms: _160  and  _161
REMARK   68  A    between atoms: _161  and  _162
REMARK   69  A    between atoms: _164  and  _166
REMARK   70  A    between atoms: _166  and  _167
REMARK   71  A    between atoms: _166  and  _169
REMARK   72  A    between atoms: _172  and  _174
REMARK   73  A    between atoms: _174  and  _175
REMARK   74  A    between atoms: _174  and  _177
REMARK   75  A    between atoms: _177  and  _178
REMARK   76  A    between atoms: _184  and  _186
REMARK   77  A    between atoms: _186  and  _187
REMARK   78  A    between atoms: _186  and  _189
REMARK   79  A    between atoms: _189  and  _190
REMARK   80  A    between atoms: _195  and  _196
REMARK   81  A    between atoms: _198  and  _200
REMARK   82  A    between atoms: _200  and  _201
REMARK   83  A    between atoms: _200  and  _203
REMARK   84  A    between atoms: _203  and  _204
REMARK   85  A    between atoms: _204  and  _205
REMARK   86  A    between atoms: _207  and  _209
REMARK   87  A    between atoms: _209  and  _210
REMARK   88  A    between atoms: _209  and  _212
REMARK   89  A    between atoms: _212  and  _213
REMARK   90  A    between atoms: _213  and  _214
REMARK   91  A    between atoms: _217  and  _219
REMARK   92  A    between atoms: _219  and  _220
REMARK   93  A    between atoms: _219  and  _222
REMARK   94  A    between atoms: _222  and  _223
REMARK   95  A    between atoms: _223  and  _224
REMARK   96  A    between atoms: _224  and  _225
REMARK   97  A    between atoms: _225  and  _226
REMARK   98  A    between atoms: _230  and  _232
REMARK   99  A    between atoms: _232  and  _233
REMARK  100  A    between atoms: _232  and  _235
REMARK  101  A    between atoms: _235  and  _236
REMARK  102  A    between atoms: _241  and  _242
REMARK  103  A    between atoms: _244  and  _246
REMARK  104  A    between atoms: _246  and  _247
REMARK  105  A    between atoms: _246  and  _249
REMARK  106  A    between atoms: _249  and  _250
REMARK  107  A    between atoms: _253  and  _255
REMARK  108  A    between atoms: _255  and  _256
REMARK  109  A    between atoms: _255  and  _258
REMARK  110  A    between atoms: _258  and  _259
REMARK  111  A    between atoms: _259  and  _260
REMARK  112  A    between atoms: _263  and  _265
REMARK  113  A    between atoms: _265  and  _266
REMARK  114  A    between atoms: _265  and  _268
REMARK  115  A    between atoms: _268  and  _269
REMARK  116  A    between atoms: _275  and  _276
REMARK  117  A    between atoms: _281  and  _283
REMARK  118  A    between atoms: _283  and  _284
REMARK  119  A    between atoms: _283  and  _286
REMARK  120  A    between atoms: _286  and  _287
REMARK  121  A    between atoms: _287  and  _288
REMARK  122  A    between atoms: _288  and  _289
REMARK  123  A    between atoms: _298  and  _300
REMARK  124  A    between atoms: _300  and  _301
REMARK  125  A    between atoms: _300  and  _303
REMARK  126  A    between atoms: _303  and  _304
REMARK  127  A    between atoms: _309  and  _311
REMARK  128  A    between atoms: _311  and  _312
REMARK  129  A    between atoms: _311  and  _314
REMARK  130  A    between atoms: _317  and  _319
REMARK  131  A    between atoms: _319  and  _320
REMARK  132  A    between atoms: _319  and  _322
REMARK  133  A    between atoms: _322  and  _323
REMARK  134  A    between atoms: _323  and  _324
REMARK  135  A    between atoms: _327  and  _329
REMARK  136  A    between atoms: _329  and  _330
REMARK  137  A    between atoms: _329  and  _332
REMARK  138  A    between atoms: _334  and  _336
REMARK  139  A    between atoms: _336  and  _337
REMARK  140  A    between atoms: _336  and  _339
REMARK  141  A    between atoms: _339  and  _340
REMARK  142  A    between atoms: _342  and  _344
REMARK  143  A    between atoms: _344  and  _345
REMARK  144  A    between atoms: _344  and  _347
REMARK  145  A    between atoms: _347  and  _348
REMARK  146  A    between atoms: _348  and  _349
REMARK  147  A    between atoms: _351  and  _353
REMARK  148  A    between atoms: _353  and  _354
REMARK  149  A    between atoms: _353  and  _356
REMARK  150  A    between atoms: _356  and  _357
REMARK  151  A    between atoms: _357  and  _358
REMARK  152  A    between atoms: _363  and  _365
REMARK  153  A    between atoms: _365  and  _366
REMARK  154  A    between atoms: _365  and  _368
REMARK  155  A    between atoms: _368  and  _369
REMARK  156  A    between atoms: _369  and  _370
REMARK  157  A    between atoms: _370  and  _371
REMARK  158  A    between atoms: _380  and  _382
REMARK  159  A    between atoms: _382  and  _383
REMARK  160  A    between atoms: _382  and  _385
REMARK  161  A    between atoms: _385  and  _386
REMARK  162  A    between atoms: _386  and  _387
REMARK  163  A    between atoms: _387  and  _388
REMARK  164  A    between atoms: _397  and  _399
REMARK  165  A    between atoms: _399  and  _400
REMARK  166  A    between atoms: _399  and  _402
REMARK  167  A    between atoms: _402  and  _403
REMARK  168  A    between atoms: _408  and  _410
REMARK  169  A    between atoms: _410  and  _411
REMARK  170  A    between atoms: _410  and  _413
REMARK  171  A    between atoms: _413  and  _414
REMARK  172  A    between atoms: _414  and  _415
REMARK  173  A    between atoms: _420  and  _422
REMARK  174  A    between atoms: _422  and  _423
REMARK  175  A    between atoms: _422  and  _425
REMARK  176  A    between atoms: _425  and  _426
REMARK  177  A    between atoms: _426  and  _427
REMARK  178  A    between atoms: _427  and  _428
REMARK  179  A    between atoms: _428  and  _429
REMARK  180  A    between atoms: _433  and  _435
REMARK  181  A    between atoms: _435  and  _436
REMARK  182  A    between atoms: _435  and  _438
REMARK  183  A    between atoms: _438  and  _439
REMARK  184  A    between atoms: _439  and  _440
REMARK  185  A    between atoms: _443  and  _445
REMARK  186  A    between atoms: _445  and  _446
REMARK  187  A    between atoms: _445  and  _448
REMARK  188  A    between atoms: _448  and  _449
REMARK  189  A    between atoms: _455  and  _457
REMARK  190  A    between atoms: _457  and  _458
REMARK  191  A    between atoms: _457  and  _460
REMARK  192  A    between atoms: _460  and  _461
REMARK  193  A    between atoms: _464  and  _466
REMARK  194  A    between atoms: _466  and  _467
REMARK  195  A    between atoms: _466  and  _469
REMARK  196  A    between atoms: _469  and  _470
REMARK  197  A    between atoms: _470  and  _471
REMARK  198  A    between atoms: _474  and  _476
REMARK  199  A    between atoms: _476  and  _477
REMARK  200  A    between atoms: _476  and  _479
REMARK  201  A    between atoms: _479  and  _480
REMARK  202  A    between atoms: _485  and  _486
REMARK  203  A    between atoms: _488  and  _490
REMARK  204  A    between atoms: _490  and  _491
REMARK  205  A    between atoms: _490  and  _493
REMARK  206  A    between atoms: _493  and  _494
REMARK  207  A    between atoms: _500  and  _502
REMARK  208  A    between atoms: _502  and  _503
REMARK  209  A    between atoms: _502  and  _505
REMARK  210  A    between atoms: _505  and  _506
REMARK  211  A    between atoms: _509  and  _511
REMARK  212  A    between atoms: _511  and  _512
REMARK  213  A    between atoms: _511  and  _514
REMARK  214  A    between atoms: _514  and  _515
REMARK  215  A    between atoms: _515  and  _516
REMARK  216  A    between atoms: _516  and  _518
REMARK  217  A    between atoms: _518  and  MG_609
REMARK  218  A    between atoms: _519  and  _521
REMARK  219  A    between atoms: _521  and  _522
REMARK  220  A    between atoms: _521  and  _524
REMARK  221  A    between atoms: _524  and  _525
REMARK  222  A    between atoms: _525  and  _526
REMARK  223  A    between atoms: _528  and  _530
REMARK  224  A    between atoms: _530  and  _531
REMARK  225  A    between atoms: _530  and  _533
REMARK  226  A    between atoms: _533  and  _534
REMARK  227  A    between atoms: _539  and  _541
REMARK  228  A    between atoms: _541  and  _542
REMARK  229  A    between atoms: _541  and  _544
REMARK  230  A    between atoms: _544  and  _545
REMARK  231  A    between atoms: _545  and  _546
REMARK  232  A    between atoms: _546  and  _547
REMARK  233  A    between atoms: _556  and  _558
REMARK  234  A    between atoms: _558  and  _559
REMARK  235  A    between atoms: _558  and  _561
REMARK  236  A    between atoms: _561  and  _562
REMARK  237  A    between atoms: _562  and  _563
REMARK  238  A    between atoms: _568  and  _570
REMARK  239  A    between atoms: _570  and  _571
REMARK  240  A    between atoms: _570  and  _573
REMARK  241  A    between atoms: _573  and  _574
REMARK  242  A    between atoms: _579  and  _581
REMARK  243  A    between atoms: _581  and  _582
REMARK  244  A    between atoms: _581  and  _584
REMARK  245  A    between atoms: _584  and  _585
REMARK  246  A    between atoms: _588  and  _590
REMARK  247  A    between atoms: _590  and  _591
REMARK  248  A    between atoms: _590  and  _593
REMARK  249  A    between atoms: _593  and  _594
REMARK  250  A    between atoms: _599  and  _601
REMARK  251  A    between atoms: _601  and  _602
REMARK  252  A    between atoms: _601  and  _604
REMARK  253  A    between atoms: _604  and  _605
REMARK  254  A    between atoms: _605  and  _606
REMARK                            x       y       z     vdW  Elec       q    Type
REMARK                         _______ _______ _______ _____ _____    ______ ____
ROOT
ATOM      1  O   HOH     1     -24.562 -11.519  22.978  0.00  0.00    +0.000 OA
ENDROOT
TORSDOF 0
REMARK  Name = ../refined-set-2016/3rv4/3rv4_pocket.pdb
REMARK  254 active torsions:
REMARK  status: ('A' for Active; 'I' for Inactive)
REMARK    1  A    between atoms: _1  and  _3
REMARK    2  A    between atoms: _3  and  _4
REMARK    3  A    between atoms: _3  and  _6
REMARK    4  A    between atoms: _6  and  _7
REMARK    5  A    between atoms: _7  and  _8
REMARK    6  A    between atoms: _11  and  _13
REMARK    7  A    between atoms: _13  and  _14
REMARK    8  A    between atoms: _13  and  _16
REMARK    9  A    between atoms: _16  and  _17
REMARK   10  A    between atoms: _17  and  _18
REMARK   11  A    between atoms: _18  and  _19
REMARK   12  A    between atoms: _19  and  _20
REMARK   13  A    between atoms: _24  and  _26
REMARK   14  A    between atoms: _26  and  _27
REMARK   15  A    between atoms: _26  and  _29
REMARK   16  A    between atoms: _29  and  _30
REMARK   17  A    between atoms: _33  and  _35
REMARK   18  A    between atoms: _35  and  _36
REMARK   19  A    between atoms: _35  and  _38
REMARK   20  A    between atoms: _42  and  _43
REMARK   21  A    between atoms: _49  and  _50
REMARK   22  A    between atoms: _55  and  _57
REMARK   23  A    between atoms: _57  and  _58
REMARK   24  A    between atoms: _57  and  _60
REMARK   25  A    between atoms: _63  and  _65
REMARK   26  A    between atoms: _65  and  _66
REMARK   27  A    between atoms: _65  and  _68
REMARK   28  A    between atoms: _68  and  _69
REMARK   29  A    between atoms: _72  and  _74
REMARK   30  A    between atoms: _74  and  _75
REMARK   31  A    between atoms: _74  and  _77
REMARK   32  A    between atoms: _77  and  _78
REMARK   33  A    between atoms: _81  and  _83
REMARK   34  A    between atoms: _83  and  _84
REMARK   35  A    between atoms: _83  and  _86
REMARK   36  A    between atoms: _86  and  _87
REMARK   37  A    between atoms: _87  and  _88
REMARK   38  A    between atoms: _88  and  _89
REMARK   39  A    between atoms: _89  and  _90
REMARK   40  A    between atoms: _94  and  _96
REMARK   41  A    between atoms: _96  and  _97
REMARK   42  A    between atoms: _100  and  _102
REMARK   43  A    between atoms: _102  and  _103
REMARK   44  A    between atoms: _102  and  _105
REMARK   45  A    between atoms: _105  and  _106
REMARK   46  A    between atoms: _108  and  _110
REMARK   47  A    between atoms: _110  and  _111
REMARK   48  A    between atoms: _113  and  _115
REMARK   49  A    between atoms: _115  and  _116
REMARK   50  A    between atoms: _118  and  _120
REMARK   51  A    between atoms: _120  and  _121
REMARK   52  A    between atoms: _123  and  _125
REMARK   53  A    between atoms: _125  and  _126
REMARK   54  A    between atoms: _128  and  _130
REMARK   55  A    between atoms: _130  and  _131
REMARK   56  A    between atoms: _133  and  _135
REMARK   57  A    between atoms: _135  and  _136
REMARK   58  A    between atoms: _135  and  _138
REMARK   59  A    between atoms: _138  and  _139
REMARK   60  A    between atoms: _139  and  _140
REMARK   61  A    between atoms: _140  and  _141
REMARK   62  A    between atoms: _150  and  _152
REMARK   63  A    between atoms: _152  and  _153
REMARK   64  A    between atoms: _155  and  _157
REMARK   65  A    between atoms: _157  and  _158
REMARK   66  A    between atoms: _157  and  _160
REMARK   67  A    between atoms: _160  and  _161
REMARK   68  A    between atoms: _161  and  _162
REMARK   69  A    between atoms: _164  and  _166
REMARK   70  A    between atoms: _166  and  _167
REMARK   71  A    between atoms: _166  and  _169
REMARK   72  A    between atoms: _172  and  _174
REMARK   73  A    between atoms: _174  and  _175
REMARK   74  A    between atoms: _174  and  _177
REMARK   75  A    between atoms: _177  and  _178
REMARK   76  A    between atoms: _184  and  _186
REMARK   77  A    between atoms: _186  and  _187
REMARK   78  A    between atoms: _186  and  _189
REMARK   79  A    between atoms: _189  and  _190
REMARK   80  A    between atoms: _195  and  _196
REMARK   81  A    between atoms: _198  and  _200
REMARK   82  A    between atoms: _200  and  _201
REMARK   83  A    between atoms: _200  and  _203
REMARK   84  A    between atoms: _203  and  _204
REMARK   85  A    between atoms: _204  and  _205
REMARK   86  A    between atoms: _207  and  _209
REMARK   87  A    between atoms: _209  and  _210
REMARK   88  A    between atoms: _209  and  _212
REMARK   89  A    between atoms: _212  and  _213
REMARK   90  A    between atoms: _213  and  _214
REMARK   91  A    between atoms: _217  and  _219
REMARK   92  A    between atoms: _219  and  _220
REMARK   93  A    between atoms: _219  and  _222
REMARK   94  A    between atoms: _222  and  _223
REMARK   95  A    between atoms: _223  and  _224
REMARK   96  A    between atoms: _224  and  _225
REMARK   97  A    between atoms: _225  and  _226
REMARK   98  A    between atoms: _230  and  _232
REMARK   99  A    between atoms: _232  and  _233
REMARK  100  A    between atoms: _232  and  _235
REMARK  101  A    between atoms: _235  and  _236
REMARK  102  A    between atoms: _241  and  _242
REMARK  103  A    between atoms: _244  and  _246
REMARK  104  A    between atoms: _246  and  _247
REMARK  105  A    between atoms: _246  and  _249
REMARK  106  A    between atoms: _249  and  _250
REMARK  107  A    between atoms: _253  and  _255
REMARK  108  A    between atoms: _255  and  _256
REMARK  109  A    between atoms: _255  and  _258
REMARK  110  A    between atoms: _258  and  _259
REMARK  111  A    between atoms: _259  and  _260
REMARK  112  A    between atoms: _263  and  _265
REMARK  113  A    between atoms: _265  and  _266
REMARK  114  A    between atoms: _265  and  _268
REMARK  115  A    between atoms: _268  and  _269
REMARK  116  A    between atoms: _275  and  _276
REMARK  117  A    between atoms: _281  and  _283
REMARK  118  A    between atoms: _283  and  _284
REMARK  119  A    between atoms: _283  and  _286
REMARK  120  A    between atoms: _286  and  _287
REMARK  121  A    between atoms: _287  and  _288
REMARK  122  A    between atoms: _288  and  _289
REMARK  123  A    between atoms: _298  and  _300
REMARK  124  A    between atoms: _300  and  _301
REMARK  125  A    between atoms: _300  and  _303
REMARK  126  A    between atoms: _303  and  _304
REMARK  127  A    between atoms: _309  and  _311
REMARK  128  A    between atoms: _311  and  _312
REMARK  129  A    between atoms: _311  and  _314
REMARK  130  A    between atoms: _317  and  _319
REMARK  131  A    between atoms: _319  and  _320
REMARK  132  A    between atoms: _319  and  _322
REMARK  133  A    between atoms: _322  and  _323
REMARK  134  A    between atoms: _323  and  _324
REMARK  135  A    between atoms: _327  and  _329
REMARK  136  A    between atoms: _329  and  _330
REMARK  137  A    between atoms: _329  and  _332
REMARK  138  A    between atoms: _334  and  _336
REMARK  139  A    between atoms: _336  and  _337
REMARK  140  A    between atoms: _336  and  _339
REMARK  141  A    between atoms: _339  and  _340
REMARK  142  A    between atoms: _342  and  _344
REMARK  143  A    between atoms: _344  and  _345
REMARK  144  A    between atoms: _344  and  _347
REMARK  145  A    between atoms: _347  and  _348
REMARK  146  A    between atoms: _348  and  _349
REMARK  147  A    between atoms: _351  and  _353
REMARK  148  A    between atoms: _353  and  _354
REMARK  149  A    between atoms: _353  and  _356
REMARK  150  A    between atoms: _356  and  _357
REMARK  151  A    between atoms: _357  and  _358
REMARK  152  A    between atoms: _363  and  _365
REMARK  153  A    between atoms: _365  and  _366
REMARK  154  A    between atoms: _365  and  _368
REMARK  155  A    between atoms: _368  and  _369
REMARK  156  A    between atoms: _369  and  _370
REMARK  157  A    between atoms: _370  and  _371
REMARK  158  A    between atoms: _380  and  _382
REMARK  159  A    between atoms: _382  and  _383
REMARK  160  A    between atoms: _382  and  _385
REMARK  161  A    between atoms: _385  and  _386
REMARK  162  A    between atoms: _386  and  _387
REMARK  163  A    between atoms: _387  and  _388
REMARK  164  A    between atoms: _397  and  _399
REMARK  165  A    between atoms: _399  and  _400
REMARK  166  A    between atoms: _399  and  _402
REMARK  167  A    between atoms: _402  and  _403
REMARK  168  A    between atoms: _408  and  _410
REMARK  169  A    between atoms: _410  and  _411
REMARK  170  A    between atoms: _410  and  _413
REMARK  171  A    between atoms: _413  and  _414
REMARK  172  A    between atoms: _414  and  _415
REMARK  173  A    between atoms: _420  and  _422
REMARK  174  A    between atoms: _422  and  _423
REMARK  175  A    between atoms: _422  and  _425
REMARK  176  A    between atoms: _425  and  _426
REMARK  177  A    between atoms: _426  and  _427
REMARK  178  A    between atoms: _427  and  _428
REMARK  179  A    between atoms: _428  and  _429
REMARK  180  A    between atoms: _433  and  _435
REMARK  181  A    between atoms: _435  and  _436
REMARK  182  A    between atoms: _435  and  _438
REMARK  183  A    between atoms: _438  and  _439
REMARK  184  A    between atoms: _439  and  _440
REMARK  185  A    between atoms: _443  and  _445
REMARK  186  A    between atoms: _445  and  _446
REMARK  187  A    between atoms: _445  and  _448
REMARK  188  A    between atoms: _448  and  _449
REMARK  189  A    between atoms: _455  and  _457
REMARK  190  A    between atoms: _457  and  _458
REMARK  191  A    between atoms: _457  and  _460
REMARK  192  A    between atoms: _460  and  _461
REMARK  193  A    between atoms: _464  and  _466
REMARK  194  A    between atoms: _466  and  _467
REMARK  195  A    between atoms: _466  and  _469
REMARK  196  A    between atoms: _469  and  _470
REMARK  197  A    between atoms: _470  and  _471
REMARK  198  A    between atoms: _474  and  _476
REMARK  199  A    between atoms: _476  and  _477
REMARK  200  A    between atoms: _476  and  _479
REMARK  201  A    between atoms: _479  and  _480
REMARK  202  A    between atoms: _485  and  _486
REMARK  203  A    between atoms: _488  and  _490
REMARK  204  A    between atoms: _490  and  _491
REMARK  205  A    between atoms: _490  and  _493
REMARK  206  A    between atoms: _493  and  _494
REMARK  207  A    between atoms: _500  and  _502
REMARK  208  A    between atoms: _502  and  _503
REMARK  209  A    between atoms: _502  and  _505
REMARK  210  A    between atoms: _505  and  _506
REMARK  211  A    between atoms: _509  and  _511
REMARK  212  A    between atoms: _511  and  _512
REMARK  213  A    between atoms: _511  and  _514
REMARK  214  A    between atoms: _514  and  _515
REMARK  215  A    between atoms: _515  and  _516
REMARK  216  A    between atoms: _516  and  _518
REMARK  217  A    between atoms: _518  and  MG_609
REMARK  218  A    between atoms: _519  and  _521
REMARK  219  A    between atoms: _521  and  _522
REMARK  220  A    between atoms: _521  and  _524
REMARK  221  A    between atoms: _524  and  _525
REMARK  222  A    between atoms: _525  and  _526
REMARK  223  A    between atoms: _528  and  _530
REMARK  224  A    between atoms: _530  and  _531
REMARK  225  A    between atoms: _530  and  _533
REMARK  226  A    between atoms: _533  and  _534
REMARK  227  A    between atoms: _539  and  _541
REMARK  228  A    between atoms: _541  and  _542
REMARK  229  A    between atoms: _541  and  _544
REMARK  230  A    between atoms: _544  and  _545
REMARK  231  A    between atoms: _545  and  _546
REMARK  232  A    between atoms: _546  and  _547
REMARK  233  A    between atoms: _556  and  _558
REMARK  234  A    between atoms: _558  and  _559
REMARK  235  A    between atoms: _558  and  _561
REMARK  236  A    between atoms: _561  and  _562
REMARK  237  A    between atoms: _562  and  _563
REMARK  238  A    between atoms: _568  and  _570
REMARK  239  A    between atoms: _570  and  _571
REMARK  240  A    between atoms: _570  and  _573
REMARK  241  A    between atoms: _573  and  _574
REMARK  242  A    between atoms: _579  and  _581
REMARK  243  A    between atoms: _581  and  _582
REMARK  244  A    between atoms: _581  and  _584
REMARK  245  A    between atoms: _584  and  _585
REMARK  246  A    between atoms: _588  and  _590
REMARK  247  A    between atoms: _590  and  _591
REMARK  248  A    between atoms: _590  and  _593
REMARK  249  A    between atoms: _593  and  _594
REMARK  250  A    between atoms: _599  and  _601
REMARK  251  A    between atoms: _601  and  _602
REMARK  252  A    between atoms: _601  and  _604
REMARK  253  A    between atoms: _604  and  _605
REMARK  254  A    between atoms: _605  and  _606
REMARK                            x       y       z     vdW  Elec       q    Type
REMARK                         _______ _______ _______ _____ _____    ______ ____
ROOT
ATOM      1  O   HOH     1     -18.784 -19.202  12.363  0.00  0.00    +0.000 OA
ENDROOT
TORSDOF 0
REMARK  Name = ../refined-set-2016/3rv4/3rv4_pocket.pdb
REMARK  254 active torsions:
REMARK  status: ('A' for Active; 'I' for Inactive)
REMARK    1  A    between atoms: _1  and  _3
REMARK    2  A    between atoms: _3  and  _4
REMARK    3  A    between atoms: _3  and  _6
REMARK    4  A    between atoms: _6  and  _7
REMARK    5  A    between atoms: _7  and  _8
REMARK    6  A    between atoms: _11  and  _13
REMARK    7  A    between atoms: _13  and  _14
REMARK    8  A    between atoms: _13  and  _16
REMARK    9  A    between atoms: _16  and  _17
REMARK   10  A    between atoms: _17  and  _18
REMARK   11  A    between atoms: _18  and  _19
REMARK   12  A    between atoms: _19  and  _20
REMARK   13  A    between atoms: _24  and  _26
REMARK   14  A    between atoms: _26  and  _27
REMARK   15  A    between atoms: _26  and  _29
REMARK   16  A    between atoms: _29  and  _30
REMARK   17  A    between atoms: _33  and  _35
REMARK   18  A    between atoms: _35  and  _36
REMARK   19  A    between atoms: _35  and  _38
REMARK   20  A    between atoms: _42  and  _43
REMARK   21  A    between atoms: _49  and  _50
REMARK   22  A    between atoms: _55  and  _57
REMARK   23  A    between atoms: _57  and  _58
REMARK   24  A    between atoms: _57  and  _60
REMARK   25  A    between atoms: _63  and  _65
REMARK   26  A    between atoms: _65  and  _66
REMARK   27  A    between atoms: _65  and  _68
REMARK   28  A    between atoms: _68  and  _69
REMARK   29  A    between atoms: _72  and  _74
REMARK   30  A    between atoms: _74  and  _75
REMARK   31  A    between atoms: _74  and  _77
REMARK   32  A    between atoms: _77  and  _78
REMARK   33  A    between atoms: _81  and  _83
REMARK   34  A    between atoms: _83  and  _84
REMARK   35  A    between atoms: _83  and  _86
REMARK   36  A    between atoms: _86  and  _87
REMARK   37  A    between atoms: _87  and  _88
REMARK   38  A    between atoms: _88  and  _89
REMARK   39  A    between atoms: _89  and  _90
REMARK   40  A    between atoms: _94  and  _96
REMARK   41  A    between atoms: _96  and  _97
REMARK   42  A    between atoms: _100  and  _102
REMARK   43  A    between atoms: _102  and  _103
REMARK   44  A    between atoms: _102  and  _105
REMARK   45  A    between atoms: _105  and  _106
REMARK   46  A    between atoms: _108  and  _110
REMARK   47  A    between atoms: _110  and  _111
REMARK   48  A    between atoms: _113  and  _115
REMARK   49  A    between atoms: _115  and  _116
REMARK   50  A    between atoms: _118  and  _120
REMARK   51  A    between atoms: _120  and  _121
REMARK   52  A    between atoms: _123  and  _125
REMARK   53  A    between atoms: _125  and  _126
REMARK   54  A    between atoms: _128  and  _130
REMARK   55  A    between atoms: _130  and  _131
REMARK   56  A    between atoms: _133  and  _135
REMARK   57  A    between atoms: _135  and  _136
REMARK   58  A    between atoms: _135  and  _138
REMARK   59  A    between atoms: _138  and  _139
REMARK   60  A    between atoms: _139  and  _140
REMARK   61  A    between atoms: _140  and  _141
REMARK   62  A    between atoms: _150  and  _152
REMARK   63  A    between atoms: _152  and  _153
REMARK   64  A    between atoms: _155  and  _157
REMARK   65  A    between atoms: _157  and  _158
REMARK   66  A    between atoms: _157  and  _160
REMARK   67  A    between atoms: _160  and  _161
REMARK   68  A    between atoms: _161  and  _162
REMARK   69  A    between atoms: _164  and  _166
REMARK   70  A    between atoms: _166  and  _167
REMARK   71  A    between atoms: _166  and  _169
REMARK   72  A    between atoms: _172  and  _174
REMARK   73  A    between atoms: _174  and  _175
REMARK   74  A    between atoms: _174  and  _177
REMARK   75  A    between atoms: _177  and  _178
REMARK   76  A    between atoms: _184  and  _186
REMARK   77  A    between atoms: _186  and  _187
REMARK   78  A    between atoms: _186  and  _189
REMARK   79  A    between atoms: _189  and  _190
REMARK   80  A    between atoms: _195  and  _196
REMARK   81  A    between atoms: _198  and  _200
REMARK   82  A    between atoms: _200  and  _201
REMARK   83  A    between atoms: _200  and  _203
REMARK   84  A    between atoms: _203  and  _204
REMARK   85  A    between atoms: _204  and  _205
REMARK   86  A    between atoms: _207  and  _209
REMARK   87  A    between atoms: _209  and  _210
REMARK   88  A    between atoms: _209  and  _212
REMARK   89  A    between atoms: _212  and  _213
REMARK   90  A    between atoms: _213  and  _214
REMARK   91  A    between atoms: _217  and  _219
REMARK   92  A    between atoms: _219  and  _220
REMARK   93  A    between atoms: _219  and  _222
REMARK   94  A    between atoms: _222  and  _223
REMARK   95  A    between atoms: _223  and  _224
REMARK   96  A    between atoms: _224  and  _225
REMARK   97  A    between atoms: _225  and  _226
REMARK   98  A    between atoms: _230  and  _232
REMARK   99  A    between atoms: _232  and  _233
REMARK  100  A    between atoms: _232  and  _235
REMARK  101  A    between atoms: _235  and  _236
REMARK  102  A    between atoms: _241  and  _242
REMARK  103  A    between atoms: _244  and  _246
REMARK  104  A    between atoms: _246  and  _247
REMARK  105  A    between atoms: _246  and  _249
REMARK  106  A    between atoms: _249  and  _250
REMARK  107  A    between atoms: _253  and  _255
REMARK  108  A    between atoms: _255  and  _256
REMARK  109  A    between atoms: _255  and  _258
REMARK  110  A    between atoms: _258  and  _259
REMARK  111  A    between atoms: _259  and  _260
REMARK  112  A    between atoms: _263  and  _265
REMARK  113  A    between atoms: _265  and  _266
REMARK  114  A    between atoms: _265  and  _268
REMARK  115  A    between atoms: _268  and  _269
REMARK  116  A    between atoms: _275  and  _276
REMARK  117  A    between atoms: _281  and  _283
REMARK  118  A    between atoms: _283  and  _284
REMARK  119  A    between atoms: _283  and  _286
REMARK  120  A    between atoms: _286  and  _287
REMARK  121  A    between atoms: _287  and  _288
REMARK  122  A    between atoms: _288  and  _289
REMARK  123  A    between atoms: _298  and  _300
REMARK  124  A    between atoms: _300  and  _301
REMARK  125  A    between atoms: _300  and  _303
REMARK  126  A    between atoms: _303  and  _304
REMARK  127  A    between atoms: _309  and  _311
REMARK  128  A    between atoms: _311  and  _312
REMARK  129  A    between atoms: _311  and  _314
REMARK  130  A    between atoms: _317  and  _319
REMARK  131  A    between atoms: _319  and  _320
REMARK  132  A    between atoms: _319  and  _322
REMARK  133  A    between atoms: _322  and  _323
REMARK  134  A    between atoms: _323  and  _324
REMARK  135  A    between atoms: _327  and  _329
REMARK  136  A    between atoms: _329  and  _330
REMARK  137  A    between atoms: _329  and  _332
REMARK  138  A    between atoms: _334  and  _336
REMARK  139  A    between atoms: _336  and  _337
REMARK  140  A    between atoms: _336  and  _339
REMARK  141  A    between atoms: _339  and  _340
REMARK  142  A    between atoms: _342  and  _344
REMARK  143  A    between atoms: _344  and  _345
REMARK  144  A    between atoms: _344  and  _347
REMARK  145  A    between atoms: _347  and  _348
REMARK  146  A    between atoms: _348  and  _349
REMARK  147  A    between atoms: _351  and  _353
REMARK  148  A    between atoms: _353  and  _354
REMARK  149  A    between atoms: _353  and  _356
REMARK  150  A    between atoms: _356  and  _357
REMARK  151  A    between atoms: _357  and  _358
REMARK  152  A    between atoms: _363  and  _365
REMARK  153  A    between atoms: _365  and  _366
REMARK  154  A    between atoms: _365  and  _368
REMARK  155  A    between atoms: _368  and  _369
REMARK  156  A    between atoms: _369  and  _370
REMARK  157  A    between atoms: _370  and  _371
REMARK  158  A    between atoms: _380  and  _382
REMARK  159  A    between atoms: _382  and  _383
REMARK  160  A    between atoms: _382  and  _385
REMARK  161  A    between atoms: _385  and  _386
REMARK  162  A    between atoms: _386  and  _387
REMARK  163  A    between atoms: _387  and  _388
REMARK  164  A    between atoms: _397  and  _399
REMARK  165  A    between atoms: _399  and  _400
REMARK  166  A    between atoms: _399  and  _402
REMARK  167  A    between atoms: _402  and  _403
REMARK  168  A    between atoms: _408  and  _410
REMARK  169  A    between atoms: _410  and  _411
REMARK  170  A    between atoms: _410  and  _413
REMARK  171  A    between atoms: _413  and  _414
REMARK  172  A    between atoms: _414  and  _415
REMARK  173  A    between atoms: _420  and  _422
REMARK  174  A    between atoms: _422  and  _423
REMARK  175  A    between atoms: _422  and  _425
REMARK  176  A    between atoms: _425  and  _426
REMARK  177  A    between atoms: _426  and  _427
REMARK  178  A    between atoms: _427  and  _428
REMARK  179  A    between atoms: _428  and  _429
REMARK  180  A    between atoms: _433  and  _435
REMARK  181  A    between atoms: _435  and  _436
REMARK  182  A    between atoms: _435  and  _438
REMARK  183  A    between atoms: _438  and  _439
REMARK  184  A    between atoms: _439  and  _440
REMARK  185  A    between atoms: _443  and  _445
REMARK  186  A    between atoms: _445  and  _446
REMARK  187  A    between atoms: _445  and  _448
REMARK  188  A    between atoms: _448  and  _449
REMARK  189  A    between atoms: _455  and  _457
REMARK  190  A    between atoms: _457  and  _458
REMARK  191  A    between atoms: _457  and  _460
REMARK  192  A    between atoms: _460  and  _461
REMARK  193  A    between atoms: _464  and  _466
REMARK  194  A    between atoms: _466  and  _467
REMARK  195  A    between atoms: _466  and  _469
REMARK  196  A    between atoms: _469  and  _470
REMARK  197  A    between atoms: _470  and  _471
REMARK  198  A    between atoms: _474  and  _476
REMARK  199  A    between atoms: _476  and  _477
REMARK  200  A    between atoms: _476  and  _479
REMARK  201  A    between atoms: _479  and  _480
REMARK  202  A    between atoms: _485  and  _486
REMARK  203  A    between atoms: _488  and  _490
REMARK  204  A    between atoms: _490  and  _491
REMARK  205  A    between atoms: _490  and  _493
REMARK  206  A    between atoms: _493  and  _494
REMARK  207  A    between atoms: _500  and  _502
REMARK  208  A    between atoms: _502  and  _503
REMARK  209  A    between atoms: _502  and  _505
REMARK  210  A    between atoms: _505  and  _506
REMARK  211  A    between atoms: _509  and  _511
REMARK  212  A    between atoms: _511  and  _512
REMARK  213  A    between atoms: _511  and  _514
REMARK  214  A    between atoms: _514  and  _515
REMARK  215  A    between atoms: _515  and  _516
REMARK  216  A    between atoms: _516  and  _518
REMARK  217  A    between atoms: _518  and  MG_609
REMARK  218  A    between atoms: _519  and  _521
REMARK  219  A    between atoms: _521  and  _522
REMARK  220  A    between atoms: _521  and  _524
REMARK  221  A    between atoms: _524  and  _525
REMARK  222  A    between atoms: _525  and  _526
REMARK  223  A    between atoms: _528  and  _530
REMARK  224  A    between atoms: _530  and  _531
REMARK  225  A    between atoms: _530  and  _533
REMARK  226  A    between atoms: _533  and  _534
REMARK  227  A    between atoms: _539  and  _541
REMARK  228  A    between atoms: _541  and  _542
REMARK  229  A    between atoms: _541  and  _544
REMARK  230  A    between atoms: _544  and  _545
REMARK  231  A    between atoms: _545  and  _546
REMARK  232  A    between atoms: _546  and  _547
REMARK  233  A    between atoms: _556  and  _558
REMARK  234  A    between atoms: _558  and  _559
REMARK  235  A    between atoms: _558  and  _561
REMARK  236  A    between atoms: _561  and  _562
REMARK  237  A    between atoms: _562  and  _563
REMARK  238  A    between atoms: _568  and  _570
REMARK  239  A    between atoms: _570  and  _571
REMARK  240  A    between atoms: _570  and  _573
REMARK  241  A    between atoms: _573  and  _574
REMARK  242  A    between atoms: _579  and  _581
REMARK  243  A    between atoms: _581  and  _582
REMARK  244  A    between atoms: _581  and  _584
REMARK  245  A    between atoms: _584  and  _585
REMARK  246  A    between atoms: _588  and  _590
REMARK  247  A    between atoms: _590  and  _591
REMARK  248  A    between atoms: _590  and  _593
REMARK  249  A    between atoms: _593  and  _594
REMARK  250  A    between atoms: _599  and  _601
REMARK  251  A    between atoms: _601  and  _602
REMARK  252  A    between atoms: _601  and  _604
REMARK  253  A    between atoms: _604  and  _605
REMARK  254  A    between atoms: _605  and  _606
REMARK                            x       y       z     vdW  Elec       q    Type
REMARK                         _______ _______ _______ _____ _____    ______ ____
ROOT
ATOM      1  O   HOH     1     -38.380  -6.183   8.688  0.00  0.00    +0.000 OA
ENDROOT
TORSDOF 0
REMARK  Name = ../refined-set-2016/3rv4/3rv4_pocket.pdb
REMARK  254 active torsions:
REMARK  status: ('A' for Active; 'I' for Inactive)
REMARK    1  A    between atoms: _1  and  _3
REMARK    2  A    between atoms: _3  and  _4
REMARK    3  A    between atoms: _3  and  _6
REMARK    4  A    between atoms: _6  and  _7
REMARK    5  A    between atoms: _7  and  _8
REMARK    6  A    between atoms: _11  and  _13
REMARK    7  A    between atoms: _13  and  _14
REMARK    8  A    between atoms: _13  and  _16
REMARK    9  A    between atoms: _16  and  _17
REMARK   10  A    between atoms: _17  and  _18
REMARK   11  A    between atoms: _18  and  _19
REMARK   12  A    between atoms: _19  and  _20
REMARK   13  A    between atoms: _24  and  _26
REMARK   14  A    between atoms: _26  and  _27
REMARK   15  A    between atoms: _26  and  _29
REMARK   16  A    between atoms: _29  and  _30
REMARK   17  A    between atoms: _33  and  _35
REMARK   18  A    between atoms: _35  and  _36
REMARK   19  A    between atoms: _35  and  _38
REMARK   20  A    between atoms: _42  and  _43
REMARK   21  A    between atoms: _49  and  _50
REMARK   22  A    between atoms: _55  and  _57
REMARK   23  A    between atoms: _57  and  _58
REMARK   24  A    between atoms: _57  and  _60
REMARK   25  A    between atoms: _63  and  _65
REMARK   26  A    between atoms: _65  and  _66
REMARK   27  A    between atoms: _65  and  _68
REMARK   28  A    between atoms: _68  and  _69
REMARK   29  A    between atoms: _72  and  _74
REMARK   30  A    between atoms: _74  and  _75
REMARK   31  A    between atoms: _74  and  _77
REMARK   32  A    between atoms: _77  and  _78
REMARK   33  A    between atoms: _81  and  _83
REMARK   34  A    between atoms: _83  and  _84
REMARK   35  A    between atoms: _83  and  _86
REMARK   36  A    between atoms: _86  and  _87
REMARK   37  A    between atoms: _87  and  _88
REMARK   38  A    between atoms: _88  and  _89
REMARK   39  A    between atoms: _89  and  _90
REMARK   40  A    between atoms: _94  and  _96
REMARK   41  A    between atoms: _96  and  _97
REMARK   42  A    between atoms: _100  and  _102
REMARK   43  A    between atoms: _102  and  _103
REMARK   44  A    between atoms: _102  and  _105
REMARK   45  A    between atoms: _105  and  _106
REMARK   46  A    between atoms: _108  and  _110
REMARK   47  A    between atoms: _110  and  _111
REMARK   48  A    between atoms: _113  and  _115
REMARK   49  A    between atoms: _115  and  _116
REMARK   50  A    between atoms: _118  and  _120
REMARK   51  A    between atoms: _120  and  _121
REMARK   52  A    between atoms: _123  and  _125
REMARK   53  A    between atoms: _125  and  _126
REMARK   54  A    between atoms: _128  and  _130
REMARK   55  A    between atoms: _130  and  _131
REMARK   56  A    between atoms: _133  and  _135
REMARK   57  A    between atoms: _135  and  _136
REMARK   58  A    between atoms: _135  and  _138
REMARK   59  A    between atoms: _138  and  _139
REMARK   60  A    between atoms: _139  and  _140
REMARK   61  A    between atoms: _140  and  _141
REMARK   62  A    between atoms: _150  and  _152
REMARK   63  A    between atoms: _152  and  _153
REMARK   64  A    between atoms: _155  and  _157
REMARK   65  A    between atoms: _157  and  _158
REMARK   66  A    between atoms: _157  and  _160
REMARK   67  A    between atoms: _160  and  _161
REMARK   68  A    between atoms: _161  and  _162
REMARK   69  A    between atoms: _164  and  _166
REMARK   70  A    between atoms: _166  and  _167
REMARK   71  A    between atoms: _166  and  _169
REMARK   72  A    between atoms: _172  and  _174
REMARK   73  A    between atoms: _174  and  _175
REMARK   74  A    between atoms: _174  and  _177
REMARK   75  A    between atoms: _177  and  _178
REMARK   76  A    between atoms: _184  and  _186
REMARK   77  A    between atoms: _186  and  _187
REMARK   78  A    between atoms: _186  and  _189
REMARK   79  A    between atoms: _189  and  _190
REMARK   80  A    between atoms: _195  and  _196
REMARK   81  A    between atoms: _198  and  _200
REMARK   82  A    between atoms: _200  and  _201
REMARK   83  A    between atoms: _200  and  _203
REMARK   84  A    between atoms: _203  and  _204
REMARK   85  A    between atoms: _204  and  _205
REMARK   86  A    between atoms: _207  and  _209
REMARK   87  A    between atoms: _209  and  _210
REMARK   88  A    between atoms: _209  and  _212
REMARK   89  A    between atoms: _212  and  _213
REMARK   90  A    between atoms: _213  and  _214
REMARK   91  A    between atoms: _217  and  _219
REMARK   92  A    between atoms: _219  and  _220
REMARK   93  A    between atoms: _219  and  _222
REMARK   94  A    between atoms: _222  and  _223
REMARK   95  A    between atoms: _223  and  _224
REMARK   96  A    between atoms: _224  and  _225
REMARK   97  A    between atoms: _225  and  _226
REMARK   98  A    between atoms: _230  and  _232
REMARK   99  A    between atoms: _232  and  _233
REMARK  100  A    between atoms: _232  and  _235
REMARK  101  A    between atoms: _235  and  _236
REMARK  102  A    between atoms: _241  and  _242
REMARK  103  A    between atoms: _244  and  _246
REMARK  104  A    between atoms: _246  and  _247
REMARK  105  A    between atoms: _246  and  _249
REMARK  106  A    between atoms: _249  and  _250
REMARK  107  A    between atoms: _253  and  _255
REMARK  108  A    between atoms: _255  and  _256
REMARK  109  A    between atoms: _255  and  _258
REMARK  110  A    between atoms: _258  and  _259
REMARK  111  A    between atoms: _259  and  _260
REMARK  112  A    between atoms: _263  and  _265
REMARK  113  A    between atoms: _265  and  _266
REMARK  114  A    between atoms: _265  and  _268
REMARK  115  A    between atoms: _268  and  _269
REMARK  116  A    between atoms: _275  and  _276
REMARK  117  A    between atoms: _281  and  _283
REMARK  118  A    between atoms: _283  and  _284
REMARK  119  A    between atoms: _283  and  _286
REMARK  120  A    between atoms: _286  and  _287
REMARK  121  A    between atoms: _287  and  _288
REMARK  122  A    between atoms: _288  and  _289
REMARK  123  A    between atoms: _298  and  _300
REMARK  124  A    between atoms: _300  and  _301
REMARK  125  A    between atoms: _300  and  _303
REMARK  126  A    between atoms: _303  and  _304
REMARK  127  A    between atoms: _309  and  _311
REMARK  128  A    between atoms: _311  and  _312
REMARK  129  A    between atoms: _311  and  _314
REMARK  130  A    between atoms: _317  and  _319
REMARK  131  A    between atoms: _319  and  _320
REMARK  132  A    between atoms: _319  and  _322
REMARK  133  A    between atoms: _322  and  _323
REMARK  134  A    between atoms: _323  and  _324
REMARK  135  A    between atoms: _327  and  _329
REMARK  136  A    between atoms: _329  and  _330
REMARK  137  A    between atoms: _329  and  _332
REMARK  138  A    between atoms: _334  and  _336
REMARK  139  A    between atoms: _336  and  _337
REMARK  140  A    between atoms: _336  and  _339
REMARK  141  A    between atoms: _339  and  _340
REMARK  142  A    between atoms: _342  and  _344
REMARK  143  A    between atoms: _344  and  _345
REMARK  144  A    between atoms: _344  and  _347
REMARK  145  A    between atoms: _347  and  _348
REMARK  146  A    between atoms: _348  and  _349
REMARK  147  A    between atoms: _351  and  _353
REMARK  148  A    between atoms: _353  and  _354
REMARK  149  A    between atoms: _353  and  _356
REMARK  150  A    between atoms: _356  and  _357
REMARK  151  A    between atoms: _357  and  _358
REMARK  152  A    between atoms: _363  and  _365
REMARK  153  A    between atoms: _365  and  _366
REMARK  154  A    between atoms: _365  and  _368
REMARK  155  A    between atoms: _368  and  _369
REMARK  156  A    between atoms: _369  and  _370
REMARK  157  A    between atoms: _370  and  _371
REMARK  158  A    between atoms: _380  and  _382
REMARK  159  A    between atoms: _382  and  _383
REMARK  160  A    between atoms: _382  and  _385
REMARK  161  A    between atoms: _385  and  _386
REMARK  162  A    between atoms: _386  and  _387
REMARK  163  A    between atoms: _387  and  _388
REMARK  164  A    between atoms: _397  and  _399
REMARK  165  A    between atoms: _399  and  _400
REMARK  166  A    between atoms: _399  and  _402
REMARK  167  A    between atoms: _402  and  _403
REMARK  168  A    between atoms: _408  and  _410
REMARK  169  A    between atoms: _410  and  _411
REMARK  170  A    between atoms: _410  and  _413
REMARK  171  A    between atoms: _413  and  _414
REMARK  172  A    between atoms: _414  and  _415
REMARK  173  A    between atoms: _420  and  _422
REMARK  174  A    between atoms: _422  and  _423
REMARK  175  A    between atoms: _422  and  _425
REMARK  176  A    between atoms: _425  and  _426
REMARK  177  A    between atoms: _426  and  _427
REMARK  178  A    between atoms: _427  and  _428
REMARK  179  A    between atoms: _428  and  _429
REMARK  180  A    between atoms: _433  and  _435
REMARK  181  A    between atoms: _435  and  _436
REMARK  182  A    between atoms: _435  and  _438
REMARK  183  A    between atoms: _438  and  _439
REMARK  184  A    between atoms: _439  and  _440
REMARK  185  A    between atoms: _443  and  _445
REMARK  186  A    between atoms: _445  and  _446
REMARK  187  A    between atoms: _445  and  _448
REMARK  188  A    between atoms: _448  and  _449
REMARK  189  A    between atoms: _455  and  _457
REMARK  190  A    between atoms: _457  and  _458
REMARK  191  A    between atoms: _457  and  _460
REMARK  192  A    between atoms: _460  and  _461
REMARK  193  A    between atoms: _464  and  _466
REMARK  194  A    between atoms: _466  and  _467
REMARK  195  A    between atoms: _466  and  _469
REMARK  196  A    between atoms: _469  and  _470
REMARK  197  A    between atoms: _470  and  _471
REMARK  198  A    between atoms: _474  and  _476
REMARK  199  A    between atoms: _476  and  _477
REMARK  200  A    between atoms: _476  and  _479
REMARK  201  A    between atoms: _479  and  _480
REMARK  202  A    between atoms: _485  and  _486
REMARK  203  A    between atoms: _488  and  _490
REMARK  204  A    between atoms: _490  and  _491
REMARK  205  A    between atoms: _490  and  _493
REMARK  206  A    between atoms: _493  and  _494
REMARK  207  A    between atoms: _500  and  _502
REMARK  208  A    between atoms: _502  and  _503
REMARK  209  A    between atoms: _502  and  _505
REMARK  210  A    between atoms: _505  and  _506
REMARK  211  A    between atoms: _509  and  _511
REMARK  212  A    between atoms: _511  and  _512
REMARK  213  A    between atoms: _511  and  _514
REMARK  214  A    between atoms: _514  and  _515
REMARK  215  A    between atoms: _515  and  _516
REMARK  216  A    between atoms: _516  and  _518
REMARK  217  A    between atoms: _518  and  MG_609
REMARK  218  A    between atoms: _519  and  _521
REMARK  219  A    between atoms: _521  and  _522
REMARK  220  A    between atoms: _521  and  _524
REMARK  221  A    between atoms: _524  and  _525
REMARK  222  A    between atoms: _525  and  _526
REMARK  223  A    between atoms: _528  and  _530
REMARK  224  A    between atoms: _530  and  _531
REMARK  225  A    between atoms: _530  and  _533
REMARK  226  A    between atoms: _533  and  _534
REMARK  227  A    between atoms: _539  and  _541
REMARK  228  A    between atoms: _541  and  _542
REMARK  229  A    between atoms: _541  and  _544
REMARK  230  A    between atoms: _544  and  _545
REMARK  231  A    between atoms: _545  and  _546
REMARK  232  A    between atoms: _546  and  _547
REMARK  233  A    between atoms: _556  and  _558
REMARK  234  A    between atoms: _558  and  _559
REMARK  235  A    between atoms: _558  and  _561
REMARK  236  A    between atoms: _561  and  _562
REMARK  237  A    between atoms: _562  and  _563
REMARK  238  A    between atoms: _568  and  _570
REMARK  239  A    between atoms: _570  and  _571
REMARK  240  A    between atoms: _570  and  _573
REMARK  241  A    between atoms: _573  and  _574
REMARK  242  A    between atoms: _579  and  _581
REMARK  243  A    between atoms: _581  and  _582
REMARK  244  A    between atoms: _581  and  _584
REMARK  245  A    between atoms: _584  and  _585
REMARK  246  A    between atoms: _588  and  _590
REMARK  247  A    between atoms: _590  and  _591
REMARK  248  A    between atoms: _590  and  _593
REMARK  249  A    between atoms: _593  and  _594
REMARK  250  A    between atoms: _599  and  _601
REMARK  251  A    between atoms: _601  and  _602
REMARK  252  A    between atoms: _601  and  _604
REMARK  253  A    between atoms: _604  and  _605
REMARK  254  A    between atoms: _605  and  _606
REMARK                            x       y       z     vdW  Elec       q    Type
REMARK                         _______ _______ _______ _____ _____    ______ ____
ROOT
ATOM      1  O   HOH     1     -31.595  -7.429  19.867  0.00  0.00    +0.000 OA
ENDROOT
TORSDOF 0
REMARK  Name = ../refined-set-2016/3rv4/3rv4_pocket.pdb
REMARK  254 active torsions:
REMARK  status: ('A' for Active; 'I' for Inactive)
REMARK    1  A    between atoms: _1  and  _3
REMARK    2  A    between atoms: _3  and  _4
REMARK    3  A    between atoms: _3  and  _6
REMARK    4  A    between atoms: _6  and  _7
REMARK    5  A    between atoms: _7  and  _8
REMARK    6  A    between atoms: _11  and  _13
REMARK    7  A    between atoms: _13  and  _14
REMARK    8  A    between atoms: _13  and  _16
REMARK    9  A    between atoms: _16  and  _17
REMARK   10  A    between atoms: _17  and  _18
REMARK   11  A    between atoms: _18  and  _19
REMARK   12  A    between atoms: _19  and  _20
REMARK   13  A    between atoms: _24  and  _26
REMARK   14  A    between atoms: _26  and  _27
REMARK   15  A    between atoms: _26  and  _29
REMARK   16  A    between atoms: _29  and  _30
REMARK   17  A    between atoms: _33  and  _35
REMARK   18  A    between atoms: _35  and  _36
REMARK   19  A    between atoms: _35  and  _38
REMARK   20  A    between atoms: _42  and  _43
REMARK   21  A    between atoms: _49  and  _50
REMARK   22  A    between atoms: _55  and  _57
REMARK   23  A    between atoms: _57  and  _58
REMARK   24  A    between atoms: _57  and  _60
REMARK   25  A    between atoms: _63  and  _65
REMARK   26  A    between atoms: _65  and  _66
REMARK   27  A    between atoms: _65  and  _68
REMARK   28  A    between atoms: _68  and  _69
REMARK   29  A    between atoms: _72  and  _74
REMARK   30  A    between atoms: _74  and  _75
REMARK   31  A    between atoms: _74  and  _77
REMARK   32  A    between atoms: _77  and  _78
REMARK   33  A    between atoms: _81  and  _83
REMARK   34  A    between atoms: _83  and  _84
REMARK   35  A    between atoms: _83  and  _86
REMARK   36  A    between atoms: _86  and  _87
REMARK   37  A    between atoms: _87  and  _88
REMARK   38  A    between atoms: _88  and  _89
REMARK   39  A    between atoms: _89  and  _90
REMARK   40  A    between atoms: _94  and  _96
REMARK   41  A    between atoms: _96  and  _97
REMARK   42  A    between atoms: _100  and  _102
REMARK   43  A    between atoms: _102  and  _103
REMARK   44  A    between atoms: _102  and  _105
REMARK   45  A    between atoms: _105  and  _106
REMARK   46  A    between atoms: _108  and  _110
REMARK   47  A    between atoms: _110  and  _111
REMARK   48  A    between atoms: _113  and  _115
REMARK   49  A    between atoms: _115  and  _116
REMARK   50  A    between atoms: _118  and  _120
REMARK   51  A    between atoms: _120  and  _121
REMARK   52  A    between atoms: _123  and  _125
REMARK   53  A    between atoms: _125  and  _126
REMARK   54  A    between atoms: _128  and  _130
REMARK   55  A    between atoms: _130  and  _131
REMARK   56  A    between atoms: _133  and  _135
REMARK   57  A    between atoms: _135  and  _136
REMARK   58  A    between atoms: _135  and  _138
REMARK   59  A    between atoms: _138  and  _139
REMARK   60  A    between atoms: _139  and  _140
REMARK   61  A    between atoms: _140  and  _141
REMARK   62  A    between atoms: _150  and  _152
REMARK   63  A    between atoms: _152  and  _153
REMARK   64  A    between atoms: _155  and  _157
REMARK   65  A    between atoms: _157  and  _158
REMARK   66  A    between atoms: _157  and  _160
REMARK   67  A    between atoms: _160  and  _161
REMARK   68  A    between atoms: _161  and  _162
REMARK   69  A    between atoms: _164  and  _166
REMARK   70  A    between atoms: _166  and  _167
REMARK   71  A    between atoms: _166  and  _169
REMARK   72  A    between atoms: _172  and  _174
REMARK   73  A    between atoms: _174  and  _175
REMARK   74  A    between atoms: _174  and  _177
REMARK   75  A    between atoms: _177  and  _178
REMARK   76  A    between atoms: _184  and  _186
REMARK   77  A    between atoms: _186  and  _187
REMARK   78  A    between atoms: _186  and  _189
REMARK   79  A    between atoms: _189  and  _190
REMARK   80  A    between atoms: _195  and  _196
REMARK   81  A    between atoms: _198  and  _200
REMARK   82  A    between atoms: _200  and  _201
REMARK   83  A    between atoms: _200  and  _203
REMARK   84  A    between atoms: _203  and  _204
REMARK   85  A    between atoms: _204  and  _205
REMARK   86  A    between atoms: _207  and  _209
REMARK   87  A    between atoms: _209  and  _210
REMARK   88  A    between atoms: _209  and  _212
REMARK   89  A    between atoms: _212  and  _213
REMARK   90  A    between atoms: _213  and  _214
REMARK   91  A    between atoms: _217  and  _219
REMARK   92  A    between atoms: _219  and  _220
REMARK   93  A    between atoms: _219  and  _222
REMARK   94  A    between atoms: _222  and  _223
REMARK   95  A    between atoms: _223  and  _224
REMARK   96  A    between atoms: _224  and  _225
REMARK   97  A    between atoms: _225  and  _226
REMARK   98  A    between atoms: _230  and  _232
REMARK   99  A    between atoms: _232  and  _233
REMARK  100  A    between atoms: _232  and  _235
REMARK  101  A    between atoms: _235  and  _236
REMARK  102  A    between atoms: _241  and  _242
REMARK  103  A    between atoms: _244  and  _246
REMARK  104  A    between atoms: _246  and  _247
REMARK  105  A    between atoms: _246  and  _249
REMARK  106  A    between atoms: _249  and  _250
REMARK  107  A    between atoms: _253  and  _255
REMARK  108  A    between atoms: _255  and  _256
REMARK  109  A    between atoms: _255  and  _258
REMARK  110  A    between atoms: _258  and  _259
REMARK  111  A    between atoms: _259  and  _260
REMARK  112  A    between atoms: _263  and  _265
REMARK  113  A    between atoms: _265  and  _266
REMARK  114  A    between atoms: _265  and  _268
REMARK  115  A    between atoms: _268  and  _269
REMARK  116  A    between atoms: _275  and  _276
REMARK  117  A    between atoms: _281  and  _283
REMARK  118  A    between atoms: _283  and  _284
REMARK  119  A    between atoms: _283  and  _286
REMARK  120  A    between atoms: _286  and  _287
REMARK  121  A    between atoms: _287  and  _288
REMARK  122  A    between atoms: _288  and  _289
REMARK  123  A    between atoms: _298  and  _300
REMARK  124  A    between atoms: _300  and  _301
REMARK  125  A    between atoms: _300  and  _303
REMARK  126  A    between atoms: _303  and  _304
REMARK  127  A    between atoms: _309  and  _311
REMARK  128  A    between atoms: _311  and  _312
REMARK  129  A    between atoms: _311  and  _314
REMARK  130  A    between atoms: _317  and  _319
REMARK  131  A    between atoms: _319  and  _320
REMARK  132  A    between atoms: _319  and  _322
REMARK  133  A    between atoms: _322  and  _323
REMARK  134  A    between atoms: _323  and  _324
REMARK  135  A    between atoms: _327  and  _329
REMARK  136  A    between atoms: _329  and  _330
REMARK  137  A    between atoms: _329  and  _332
REMARK  138  A    between atoms: _334  and  _336
REMARK  139  A    between atoms: _336  and  _337
REMARK  140  A    between atoms: _336  and  _339
REMARK  141  A    between atoms: _339  and  _340
REMARK  142  A    between atoms: _342  and  _344
REMARK  143  A    between atoms: _344  and  _345
REMARK  144  A    between atoms: _344  and  _347
REMARK  145  A    between atoms: _347  and  _348
REMARK  146  A    between atoms: _348  and  _349
REMARK  147  A    between atoms: _351  and  _353
REMARK  148  A    between atoms: _353  and  _354
REMARK  149  A    between atoms: _353  and  _356
REMARK  150  A    between atoms: _356  and  _357
REMARK  151  A    between atoms: _357  and  _358
REMARK  152  A    between atoms: _363  and  _365
REMARK  153  A    between atoms: _365  and  _366
REMARK  154  A    between atoms: _365  and  _368
REMARK  155  A    between atoms: _368  and  _369
REMARK  156  A    between atoms: _369  and  _370
REMARK  157  A    between atoms: _370  and  _371
REMARK  158  A    between atoms: _380  and  _382
REMARK  159  A    between atoms: _382  and  _383
REMARK  160  A    between atoms: _382  and  _385
REMARK  161  A    between atoms: _385  and  _386
REMARK  162  A    between atoms: _386  and  _387
REMARK  163  A    between atoms: _387  and  _388
REMARK  164  A    between atoms: _397  and  _399
REMARK  165  A    between atoms: _399  and  _400
REMARK  166  A    between atoms: _399  and  _402
REMARK  167  A    between atoms: _402  and  _403
REMARK  168  A    between atoms: _408  and  _410
REMARK  169  A    between atoms: _410  and  _411
REMARK  170  A    between atoms: _410  and  _413
REMARK  171  A    between atoms: _413  and  _414
REMARK  172  A    between atoms: _414  and  _415
REMARK  173  A    between atoms: _420  and  _422
REMARK  174  A    between atoms: _422  and  _423
REMARK  175  A    between atoms: _422  and  _425
REMARK  176  A    between atoms: _425  and  _426
REMARK  177  A    between atoms: _426  and  _427
REMARK  178  A    between atoms: _427  and  _428
REMARK  179  A    between atoms: _428  and  _429
REMARK  180  A    between atoms: _433  and  _435
REMARK  181  A    between atoms: _435  and  _436
REMARK  182  A    between atoms: _435  and  _438
REMARK  183  A    between atoms: _438  and  _439
REMARK  184  A    between atoms: _439  and  _440
REMARK  185  A    between atoms: _443  and  _445
REMARK  186  A    between atoms: _445  and  _446
REMARK  187  A    between atoms: _445  and  _448
REMARK  188  A    between atoms: _448  and  _449
REMARK  189  A    between atoms: _455  and  _457
REMARK  190  A    between atoms: _457  and  _458
REMARK  191  A    between atoms: _457  and  _460
REMARK  192  A    between atoms: _460  and  _461
REMARK  193  A    between atoms: _464  and  _466
REMARK  194  A    between atoms: _466  and  _467
REMARK  195  A    between atoms: _466  and  _469
REMARK  196  A    between atoms: _469  and  _470
REMARK  197  A    between atoms: _470  and  _471
REMARK  198  A    between atoms: _474  and  _476
REMARK  199  A    between atoms: _476  and  _477
REMARK  200  A    between atoms: _476  and  _479
REMARK  201  A    between atoms: _479  and  _480
REMARK  202  A    between atoms: _485  and  _486
REMARK  203  A    between atoms: _488  and  _490
REMARK  204  A    between atoms: _490  and  _491
REMARK  205  A    between atoms: _490  and  _493
REMARK  206  A    between atoms: _493  and  _494
REMARK  207  A    between atoms: _500  and  _502
REMARK  208  A    between atoms: _502  and  _503
REMARK  209  A    between atoms: _502  and  _505
REMARK  210  A    between atoms: _505  and  _506
REMARK  211  A    between atoms: _509  and  _511
REMARK  212  A    between atoms: _511  and  _512
REMARK  213  A    between atoms: _511  and  _514
REMARK  214  A    between atoms: _514  and  _515
REMARK  215  A    between atoms: _515  and  _516
REMARK  216  A    between atoms: _516  and  _518
REMARK  217  A    between atoms: _518  and  MG_609
REMARK  218  A    between atoms: _519  and  _521
REMARK  219  A    between atoms: _521  and  _522
REMARK  220  A    between atoms: _521  and  _524
REMARK  221  A    between atoms: _524  and  _525
REMARK  222  A    between atoms: _525  and  _526
REMARK  223  A    between atoms: _528  and  _530
REMARK  224  A    between atoms: _530  and  _531
REMARK  225  A    between atoms: _530  and  _533
REMARK  226  A    between atoms: _533  and  _534
REMARK  227  A    between atoms: _539  and  _541
REMARK  228  A    between atoms: _541  and  _542
REMARK  229  A    between atoms: _541  and  _544
REMARK  230  A    between atoms: _544  and  _545
REMARK  231  A    between atoms: _545  and  _546
REMARK  232  A    between atoms: _546  and  _547
REMARK  233  A    between atoms: _556  and  _558
REMARK  234  A    between atoms: _558  and  _559
REMARK  235  A    between atoms: _558  and  _561
REMARK  236  A    between atoms: _561  and  _562
REMARK  237  A    between atoms: _562  and  _563
REMARK  238  A    between atoms: _568  and  _570
REMARK  239  A    between atoms: _570  and  _571
REMARK  240  A    between atoms: _570  and  _573
REMARK  241  A    between atoms: _573  and  _574
REMARK  242  A    between atoms: _579  and  _581
REMARK  243  A    between atoms: _581  and  _582
REMARK  244  A    between atoms: _581  and  _584
REMARK  245  A    between atoms: _584  and  _585
REMARK  246  A    between atoms: _588  and  _590
REMARK  247  A    between atoms: _590  and  _591
REMARK  248  A    between atoms: _590  and  _593
REMARK  249  A    between atoms: _593  and  _594
REMARK  250  A    between atoms: _599  and  _601
REMARK  251  A    between atoms: _601  and  _602
REMARK  252  A    between atoms: _601  and  _604
REMARK  253  A    between atoms: _604  and  _605
REMARK  254  A    between atoms: _605  and  _606
REMARK                            x       y       z     vdW  Elec       q    Type
REMARK                         _______ _______ _______ _____ _____    ______ ____
ROOT
ATOM      1  O   HOH     1     -41.166  -8.122  11.445  0.00  0.00    +0.000 OA
ENDROOT
TORSDOF 0
REMARK  Name = ../refined-set-2016/3rv4/3rv4_pocket.pdb
REMARK  254 active torsions:
REMARK  status: ('A' for Active; 'I' for Inactive)
REMARK    1  A    between atoms: _1  and  _3
REMARK    2  A    between atoms: _3  and  _4
REMARK    3  A    between atoms: _3  and  _6
REMARK    4  A    between atoms: _6  and  _7
REMARK    5  A    between atoms: _7  and  _8
REMARK    6  A    between atoms: _11  and  _13
REMARK    7  A    between atoms: _13  and  _14
REMARK    8  A    between atoms: _13  and  _16
REMARK    9  A    between atoms: _16  and  _17
REMARK   10  A    between atoms: _17  and  _18
REMARK   11  A    between atoms: _18  and  _19
REMARK   12  A    between atoms: _19  and  _20
REMARK   13  A    between atoms: _24  and  _26
REMARK   14  A    between atoms: _26  and  _27
REMARK   15  A    between atoms: _26  and  _29
REMARK   16  A    between atoms: _29  and  _30
REMARK   17  A    between atoms: _33  and  _35
REMARK   18  A    between atoms: _35  and  _36
REMARK   19  A    between atoms: _35  and  _38
REMARK   20  A    between atoms: _42  and  _43
REMARK   21  A    between atoms: _49  and  _50
REMARK   22  A    between atoms: _55  and  _57
REMARK   23  A    between atoms: _57  and  _58
REMARK   24  A    between atoms: _57  and  _60
REMARK   25  A    between atoms: _63  and  _65
REMARK   26  A    between atoms: _65  and  _66
REMARK   27  A    between atoms: _65  and  _68
REMARK   28  A    between atoms: _68  and  _69
REMARK   29  A    between atoms: _72  and  _74
REMARK   30  A    between atoms: _74  and  _75
REMARK   31  A    between atoms: _74  and  _77
REMARK   32  A    between atoms: _77  and  _78
REMARK   33  A    between atoms: _81  and  _83
REMARK   34  A    between atoms: _83  and  _84
REMARK   35  A    between atoms: _83  and  _86
REMARK   36  A    between atoms: _86  and  _87
REMARK   37  A    between atoms: _87  and  _88
REMARK   38  A    between atoms: _88  and  _89
REMARK   39  A    between atoms: _89  and  _90
REMARK   40  A    between atoms: _94  and  _96
REMARK   41  A    between atoms: _96  and  _97
REMARK   42  A    between atoms: _100  and  _102
REMARK   43  A    between atoms: _102  and  _103
REMARK   44  A    between atoms: _102  and  _105
REMARK   45  A    between atoms: _105  and  _106
REMARK   46  A    between atoms: _108  and  _110
REMARK   47  A    between atoms: _110  and  _111
REMARK   48  A    between atoms: _113  and  _115
REMARK   49  A    between atoms: _115  and  _116
REMARK   50  A    between atoms: _118  and  _120
REMARK   51  A    between atoms: _120  and  _121
REMARK   52  A    between atoms: _123  and  _125
REMARK   53  A    between atoms: _125  and  _126
REMARK   54  A    between atoms: _128  and  _130
REMARK   55  A    between atoms: _130  and  _131
REMARK   56  A    between atoms: _133  and  _135
REMARK   57  A    between atoms: _135  and  _136
REMARK   58  A    between atoms: _135  and  _138
REMARK   59  A    between atoms: _138  and  _139
REMARK   60  A    between atoms: _139  and  _140
REMARK   61  A    between atoms: _140  and  _141
REMARK   62  A    between atoms: _150  and  _152
REMARK   63  A    between atoms: _152  and  _153
REMARK   64  A    between atoms: _155  and  _157
REMARK   65  A    between atoms: _157  and  _158
REMARK   66  A    between atoms: _157  and  _160
REMARK   67  A    between atoms: _160  and  _161
REMARK   68  A    between atoms: _161  and  _162
REMARK   69  A    between atoms: _164  and  _166
REMARK   70  A    between atoms: _166  and  _167
REMARK   71  A    between atoms: _166  and  _169
REMARK   72  A    between atoms: _172  and  _174
REMARK   73  A    between atoms: _174  and  _175
REMARK   74  A    between atoms: _174  and  _177
REMARK   75  A    between atoms: _177  and  _178
REMARK   76  A    between atoms: _184  and  _186
REMARK   77  A    between atoms: _186  and  _187
REMARK   78  A    between atoms: _186  and  _189
REMARK   79  A    between atoms: _189  and  _190
REMARK   80  A    between atoms: _195  and  _196
REMARK   81  A    between atoms: _198  and  _200
REMARK   82  A    between atoms: _200  and  _201
REMARK   83  A    between atoms: _200  and  _203
REMARK   84  A    between atoms: _203  and  _204
REMARK   85  A    between atoms: _204  and  _205
REMARK   86  A    between atoms: _207  and  _209
REMARK   87  A    between atoms: _209  and  _210
REMARK   88  A    between atoms: _209  and  _212
REMARK   89  A    between atoms: _212  and  _213
REMARK   90  A    between atoms: _213  and  _214
REMARK   91  A    between atoms: _217  and  _219
REMARK   92  A    between atoms: _219  and  _220
REMARK   93  A    between atoms: _219  and  _222
REMARK   94  A    between atoms: _222  and  _223
REMARK   95  A    between atoms: _223  and  _224
REMARK   96  A    between atoms: _224  and  _225
REMARK   97  A    between atoms: _225  and  _226
REMARK   98  A    between atoms: _230  and  _232
REMARK   99  A    between atoms: _232  and  _233
REMARK  100  A    between atoms: _232  and  _235
REMARK  101  A    between atoms: _235  and  _236
REMARK  102  A    between atoms: _241  and  _242
REMARK  103  A    between atoms: _244  and  _246
REMARK  104  A    between atoms: _246  and  _247
REMARK  105  A    between atoms: _246  and  _249
REMARK  106  A    between atoms: _249  and  _250
REMARK  107  A    between atoms: _253  and  _255
REMARK  108  A    between atoms: _255  and  _256
REMARK  109  A    between atoms: _255  and  _258
REMARK  110  A    between atoms: _258  and  _259
REMARK  111  A    between atoms: _259  and  _260
REMARK  112  A    between atoms: _263  and  _265
REMARK  113  A    between atoms: _265  and  _266
REMARK  114  A    between atoms: _265  and  _268
REMARK  115  A    between atoms: _268  and  _269
REMARK  116  A    between atoms: _275  and  _276
REMARK  117  A    between atoms: _281  and  _283
REMARK  118  A    between atoms: _283  and  _284
REMARK  119  A    between atoms: _283  and  _286
REMARK  120  A    between atoms: _286  and  _287
REMARK  121  A    between atoms: _287  and  _288
REMARK  122  A    between atoms: _288  and  _289
REMARK  123  A    between atoms: _298  and  _300
REMARK  124  A    between atoms: _300  and  _301
REMARK  125  A    between atoms: _300  and  _303
REMARK  126  A    between atoms: _303  and  _304
REMARK  127  A    between atoms: _309  and  _311
REMARK  128  A    between atoms: _311  and  _312
REMARK  129  A    between atoms: _311  and  _314
REMARK  130  A    between atoms: _317  and  _319
REMARK  131  A    between atoms: _319  and  _320
REMARK  132  A    between atoms: _319  and  _322
REMARK  133  A    between atoms: _322  and  _323
REMARK  134  A    between atoms: _323  and  _324
REMARK  135  A    between atoms: _327  and  _329
REMARK  136  A    between atoms: _329  and  _330
REMARK  137  A    between atoms: _329  and  _332
REMARK  138  A    between atoms: _334  and  _336
REMARK  139  A    between atoms: _336  and  _337
REMARK  140  A    between atoms: _336  and  _339
REMARK  141  A    between atoms: _339  and  _340
REMARK  142  A    between atoms: _342  and  _344
REMARK  143  A    between atoms: _344  and  _345
REMARK  144  A    between atoms: _344  and  _347
REMARK  145  A    between atoms: _347  and  _348
REMARK  146  A    between atoms: _348  and  _349
REMARK  147  A    between atoms: _351  and  _353
REMARK  148  A    between atoms: _353  and  _354
REMARK  149  A    between atoms: _353  and  _356
REMARK  150  A    between atoms: _356  and  _357
REMARK  151  A    between atoms: _357  and  _358
REMARK  152  A    between atoms: _363  and  _365
REMARK  153  A    between atoms: _365  and  _366
REMARK  154  A    between atoms: _365  and  _368
REMARK  155  A    between atoms: _368  and  _369
REMARK  156  A    between atoms: _369  and  _370
REMARK  157  A    between atoms: _370  and  _371
REMARK  158  A    between atoms: _380  and  _382
REMARK  159  A    between atoms: _382  and  _383
REMARK  160  A    between atoms: _382  and  _385
REMARK  161  A    between atoms: _385  and  _386
REMARK  162  A    between atoms: _386  and  _387
REMARK  163  A    between atoms: _387  and  _388
REMARK  164  A    between atoms: _397  and  _399
REMARK  165  A    between atoms: _399  and  _400
REMARK  166  A    between atoms: _399  and  _402
REMARK  167  A    between atoms: _402  and  _403
REMARK  168  A    between atoms: _408  and  _410
REMARK  169  A    between atoms: _410  and  _411
REMARK  170  A    between atoms: _410  and  _413
REMARK  171  A    between atoms: _413  and  _414
REMARK  172  A    between atoms: _414  and  _415
REMARK  173  A    between atoms: _420  and  _422
REMARK  174  A    between atoms: _422  and  _423
REMARK  175  A    between atoms: _422  and  _425
REMARK  176  A    between atoms: _425  and  _426
REMARK  177  A    between atoms: _426  and  _427
REMARK  178  A    between atoms: _427  and  _428
REMARK  179  A    between atoms: _428  and  _429
REMARK  180  A    between atoms: _433  and  _435
REMARK  181  A    between atoms: _435  and  _436
REMARK  182  A    between atoms: _435  and  _438
REMARK  183  A    between atoms: _438  and  _439
REMARK  184  A    between atoms: _439  and  _440
REMARK  185  A    between atoms: _443  and  _445
REMARK  186  A    between atoms: _445  and  _446
REMARK  187  A    between atoms: _445  and  _448
REMARK  188  A    between atoms: _448  and  _449
REMARK  189  A    between atoms: _455  and  _457
REMARK  190  A    between atoms: _457  and  _458
REMARK  191  A    between atoms: _457  and  _460
REMARK  192  A    between atoms: _460  and  _461
REMARK  193  A    between atoms: _464  and  _466
REMARK  194  A    between atoms: _466  and  _467
REMARK  195  A    between atoms: _466  and  _469
REMARK  196  A    between atoms: _469  and  _470
REMARK  197  A    between atoms: _470  and  _471
REMARK  198  A    between atoms: _474  and  _476
REMARK  199  A    between atoms: _476  and  _477
REMARK  200  A    between atoms: _476  and  _479
REMARK  201  A    between atoms: _479  and  _480
REMARK  202  A    between atoms: _485  and  _486
REMARK  203  A    between atoms: _488  and  _490
REMARK  204  A    between atoms: _490  and  _491
REMARK  205  A    between atoms: _490  and  _493
REMARK  206  A    between atoms: _493  and  _494
REMARK  207  A    between atoms: _500  and  _502
REMARK  208  A    between atoms: _502  and  _503
REMARK  209  A    between atoms: _502  and  _505
REMARK  210  A    between atoms: _505  and  _506
REMARK  211  A    between atoms: _509  and  _511
REMARK  212  A    between atoms: _511  and  _512
REMARK  213  A    between atoms: _511  and  _514
REMARK  214  A    between atoms: _514  and  _515
REMARK  215  A    between atoms: _515  and  _516
REMARK  216  A    between atoms: _516  and  _518
REMARK  217  A    between atoms: _518  and  MG_609
REMARK  218  A    between atoms: _519  and  _521
REMARK  219  A    between atoms: _521  and  _522
REMARK  220  A    between atoms: _521  and  _524
REMARK  221  A    between atoms: _524  and  _525
REMARK  222  A    between atoms: _525  and  _526
REMARK  223  A    between atoms: _528  and  _530
REMARK  224  A    between atoms: _530  and  _531
REMARK  225  A    between atoms: _530  and  _533
REMARK  226  A    between atoms: _533  and  _534
REMARK  227  A    between atoms: _539  and  _541
REMARK  228  A    between atoms: _541  and  _542
REMARK  229  A    between atoms: _541  and  _544
REMARK  230  A    between atoms: _544  and  _545
REMARK  231  A    between atoms: _545  and  _546
REMARK  232  A    between atoms: _546  and  _547
REMARK  233  A    between atoms: _556  and  _558
REMARK  234  A    between atoms: _558  and  _559
REMARK  235  A    between atoms: _558  and  _561
REMARK  236  A    between atoms: _561  and  _562
REMARK  237  A    between atoms: _562  and  _563
REMARK  238  A    between atoms: _568  and  _570
REMARK  239  A    between atoms: _570  and  _571
REMARK  240  A    between atoms: _570  and  _573
REMARK  241  A    between atoms: _573  and  _574
REMARK  242  A    between atoms: _579  and  _581
REMARK  243  A    between atoms: _581  and  _582
REMARK  244  A    between atoms: _581  and  _584
REMARK  245  A    between atoms: _584  and  _585
REMARK  246  A    between atoms: _588  and  _590
REMARK  247  A    between atoms: _590  and  _591
REMARK  248  A    between atoms: _590  and  _593
REMARK  249  A    between atoms: _593  and  _594
REMARK  250  A    between atoms: _599  and  _601
REMARK  251  A    between atoms: _601  and  _602
REMARK  252  A    between atoms: _601  and  _604
REMARK  253  A    between atoms: _604  and  _605
REMARK  254  A    between atoms: _605  and  _606
REMARK                            x       y       z     vdW  Elec       q    Type
REMARK                         _______ _______ _______ _____ _____    ______ ____
ROOT
ATOM      1  O   HOH     1     -20.713 -16.020  13.275  0.00  0.00    +0.000 OA
ENDROOT
TORSDOF 0
REMARK  Name = ../refined-set-2016/3rv4/3rv4_pocket.pdb
REMARK  254 active torsions:
REMARK  status: ('A' for Active; 'I' for Inactive)
REMARK    1  A    between atoms: _1  and  _3
REMARK    2  A    between atoms: _3  and  _4
REMARK    3  A    between atoms: _3  and  _6
REMARK    4  A    between atoms: _6  and  _7
REMARK    5  A    between atoms: _7  and  _8
REMARK    6  A    between atoms: _11  and  _13
REMARK    7  A    between atoms: _13  and  _14
REMARK    8  A    between atoms: _13  and  _16
REMARK    9  A    between atoms: _16  and  _17
REMARK   10  A    between atoms: _17  and  _18
REMARK   11  A    between atoms: _18  and  _19
REMARK   12  A    between atoms: _19  and  _20
REMARK   13  A    between atoms: _24  and  _26
REMARK   14  A    between atoms: _26  and  _27
REMARK   15  A    between atoms: _26  and  _29
REMARK   16  A    between atoms: _29  and  _30
REMARK   17  A    between atoms: _33  and  _35
REMARK   18  A    between atoms: _35  and  _36
REMARK   19  A    between atoms: _35  and  _38
REMARK   20  A    between atoms: _42  and  _43
REMARK   21  A    between atoms: _49  and  _50
REMARK   22  A    between atoms: _55  and  _57
REMARK   23  A    between atoms: _57  and  _58
REMARK   24  A    between atoms: _57  and  _60
REMARK   25  A    between atoms: _63  and  _65
REMARK   26  A    between atoms: _65  and  _66
REMARK   27  A    between atoms: _65  and  _68
REMARK   28  A    between atoms: _68  and  _69
REMARK   29  A    between atoms: _72  and  _74
REMARK   30  A    between atoms: _74  and  _75
REMARK   31  A    between atoms: _74  and  _77
REMARK   32  A    between atoms: _77  and  _78
REMARK   33  A    between atoms: _81  and  _83
REMARK   34  A    between atoms: _83  and  _84
REMARK   35  A    between atoms: _83  and  _86
REMARK   36  A    between atoms: _86  and  _87
REMARK   37  A    between atoms: _87  and  _88
REMARK   38  A    between atoms: _88  and  _89
REMARK   39  A    between atoms: _89  and  _90
REMARK   40  A    between atoms: _94  and  _96
REMARK   41  A    between atoms: _96  and  _97
REMARK   42  A    between atoms: _100  and  _102
REMARK   43  A    between atoms: _102  and  _103
REMARK   44  A    between atoms: _102  and  _105
REMARK   45  A    between atoms: _105  and  _106
REMARK   46  A    between atoms: _108  and  _110
REMARK   47  A    between atoms: _110  and  _111
REMARK   48  A    between atoms: _113  and  _115
REMARK   49  A    between atoms: _115  and  _116
REMARK   50  A    between atoms: _118  and  _120
REMARK   51  A    between atoms: _120  and  _121
REMARK   52  A    between atoms: _123  and  _125
REMARK   53  A    between atoms: _125  and  _126
REMARK   54  A    between atoms: _128  and  _130
REMARK   55  A    between atoms: _130  and  _131
REMARK   56  A    between atoms: _133  and  _135
REMARK   57  A    between atoms: _135  and  _136
REMARK   58  A    between atoms: _135  and  _138
REMARK   59  A    between atoms: _138  and  _139
REMARK   60  A    between atoms: _139  and  _140
REMARK   61  A    between atoms: _140  and  _141
REMARK   62  A    between atoms: _150  and  _152
REMARK   63  A    between atoms: _152  and  _153
REMARK   64  A    between atoms: _155  and  _157
REMARK   65  A    between atoms: _157  and  _158
REMARK   66  A    between atoms: _157  and  _160
REMARK   67  A    between atoms: _160  and  _161
REMARK   68  A    between atoms: _161  and  _162
REMARK   69  A    between atoms: _164  and  _166
REMARK   70  A    between atoms: _166  and  _167
REMARK   71  A    between atoms: _166  and  _169
REMARK   72  A    between atoms: _172  and  _174
REMARK   73  A    between atoms: _174  and  _175
REMARK   74  A    between atoms: _174  and  _177
REMARK   75  A    between atoms: _177  and  _178
REMARK   76  A    between atoms: _184  and  _186
REMARK   77  A    between atoms: _186  and  _187
REMARK   78  A    between atoms: _186  and  _189
REMARK   79  A    between atoms: _189  and  _190
REMARK   80  A    between atoms: _195  and  _196
REMARK   81  A    between atoms: _198  and  _200
REMARK   82  A    between atoms: _200  and  _201
REMARK   83  A    between atoms: _200  and  _203
REMARK   84  A    between atoms: _203  and  _204
REMARK   85  A    between atoms: _204  and  _205
REMARK   86  A    between atoms: _207  and  _209
REMARK   87  A    between atoms: _209  and  _210
REMARK   88  A    between atoms: _209  and  _212
REMARK   89  A    between atoms: _212  and  _213
REMARK   90  A    between atoms: _213  and  _214
REMARK   91  A    between atoms: _217  and  _219
REMARK   92  A    between atoms: _219  and  _220
REMARK   93  A    between atoms: _219  and  _222
REMARK   94  A    between atoms: _222  and  _223
REMARK   95  A    between atoms: _223  and  _224
REMARK   96  A    between atoms: _224  and  _225
REMARK   97  A    between atoms: _225  and  _226
REMARK   98  A    between atoms: _230  and  _232
REMARK   99  A    between atoms: _232  and  _233
REMARK  100  A    between atoms: _232  and  _235
REMARK  101  A    between atoms: _235  and  _236
REMARK  102  A    between atoms: _241  and  _242
REMARK  103  A    between atoms: _244  and  _246
REMARK  104  A    between atoms: _246  and  _247
REMARK  105  A    between atoms: _246  and  _249
REMARK  106  A    between atoms: _249  and  _250
REMARK  107  A    between atoms: _253  and  _255
REMARK  108  A    between atoms: _255  and  _256
REMARK  109  A    between atoms: _255  and  _258
REMARK  110  A    between atoms: _258  and  _259
REMARK  111  A    between atoms: _259  and  _260
REMARK  112  A    between atoms: _263  and  _265
REMARK  113  A    between atoms: _265  and  _266
REMARK  114  A    between atoms: _265  and  _268
REMARK  115  A    between atoms: _268  and  _269
REMARK  116  A    between atoms: _275  and  _276
REMARK  117  A    between atoms: _281  and  _283
REMARK  118  A    between atoms: _283  and  _284
REMARK  119  A    between atoms: _283  and  _286
REMARK  120  A    between atoms: _286  and  _287
REMARK  121  A    between atoms: _287  and  _288
REMARK  122  A    between atoms: _288  and  _289
REMARK  123  A    between atoms: _298  and  _300
REMARK  124  A    between atoms: _300  and  _301
REMARK  125  A    between atoms: _300  and  _303
REMARK  126  A    between atoms: _303  and  _304
REMARK  127  A    between atoms: _309  and  _311
REMARK  128  A    between atoms: _311  and  _312
REMARK  129  A    between atoms: _311  and  _314
REMARK  130  A    between atoms: _317  and  _319
REMARK  131  A    between atoms: _319  and  _320
REMARK  132  A    between atoms: _319  and  _322
REMARK  133  A    between atoms: _322  and  _323
REMARK  134  A    between atoms: _323  and  _324
REMARK  135  A    between atoms: _327  and  _329
REMARK  136  A    between atoms: _329  and  _330
REMARK  137  A    between atoms: _329  and  _332
REMARK  138  A    between atoms: _334  and  _336
REMARK  139  A    between atoms: _336  and  _337
REMARK  140  A    between atoms: _336  and  _339
REMARK  141  A    between atoms: _339  and  _340
REMARK  142  A    between atoms: _342  and  _344
REMARK  143  A    between atoms: _344  and  _345
REMARK  144  A    between atoms: _344  and  _347
REMARK  145  A    between atoms: _347  and  _348
REMARK  146  A    between atoms: _348  and  _349
REMARK  147  A    between atoms: _351  and  _353
REMARK  148  A    between atoms: _353  and  _354
REMARK  149  A    between atoms: _353  and  _356
REMARK  150  A    between atoms: _356  and  _357
REMARK  151  A    between atoms: _357  and  _358
REMARK  152  A    between atoms: _363  and  _365
REMARK  153  A    between atoms: _365  and  _366
REMARK  154  A    between atoms: _365  and  _368
REMARK  155  A    between atoms: _368  and  _369
REMARK  156  A    between atoms: _369  and  _370
REMARK  157  A    between atoms: _370  and  _371
REMARK  158  A    between atoms: _380  and  _382
REMARK  159  A    between atoms: _382  and  _383
REMARK  160  A    between atoms: _382  and  _385
REMARK  161  A    between atoms: _385  and  _386
REMARK  162  A    between atoms: _386  and  _387
REMARK  163  A    between atoms: _387  and  _388
REMARK  164  A    between atoms: _397  and  _399
REMARK  165  A    between atoms: _399  and  _400
REMARK  166  A    between atoms: _399  and  _402
REMARK  167  A    between atoms: _402  and  _403
REMARK  168  A    between atoms: _408  and  _410
REMARK  169  A    between atoms: _410  and  _411
REMARK  170  A    between atoms: _410  and  _413
REMARK  171  A    between atoms: _413  and  _414
REMARK  172  A    between atoms: _414  and  _415
REMARK  173  A    between atoms: _420  and  _422
REMARK  174  A    between atoms: _422  and  _423
REMARK  175  A    between atoms: _422  and  _425
REMARK  176  A    between atoms: _425  and  _426
REMARK  177  A    between atoms: _426  and  _427
REMARK  178  A    between atoms: _427  and  _428
REMARK  179  A    between atoms: _428  and  _429
REMARK  180  A    between atoms: _433  and  _435
REMARK  181  A    between atoms: _435  and  _436
REMARK  182  A    between atoms: _435  and  _438
REMARK  183  A    between atoms: _438  and  _439
REMARK  184  A    between atoms: _439  and  _440
REMARK  185  A    between atoms: _443  and  _445
REMARK  186  A    between atoms: _445  and  _446
REMARK  187  A    between atoms: _445  and  _448
REMARK  188  A    between atoms: _448  and  _449
REMARK  189  A    between atoms: _455  and  _457
REMARK  190  A    between atoms: _457  and  _458
REMARK  191  A    between atoms: _457  and  _460
REMARK  192  A    between atoms: _460  and  _461
REMARK  193  A    between atoms: _464  and  _466
REMARK  194  A    between atoms: _466  and  _467
REMARK  195  A    between atoms: _466  and  _469
REMARK  196  A    between atoms: _469  and  _470
REMARK  197  A    between atoms: _470  and  _471
REMARK  198  A    between atoms: _474  and  _476
REMARK  199  A    between atoms: _476  and  _477
REMARK  200  A    between atoms: _476  and  _479
REMARK  201  A    between atoms: _479  and  _480
REMARK  202  A    between atoms: _485  and  _486
REMARK  203  A    between atoms: _488  and  _490
REMARK  204  A    between atoms: _490  and  _491
REMARK  205  A    between atoms: _490  and  _493
REMARK  206  A    between atoms: _493  and  _494
REMARK  207  A    between atoms: _500  and  _502
REMARK  208  A    between atoms: _502  and  _503
REMARK  209  A    between atoms: _502  and  _505
REMARK  210  A    between atoms: _505  and  _506
REMARK  211  A    between atoms: _509  and  _511
REMARK  212  A    between atoms: _511  and  _512
REMARK  213  A    between atoms: _511  and  _514
REMARK  214  A    between atoms: _514  and  _515
REMARK  215  A    between atoms: _515  and  _516
REMARK  216  A    between atoms: _516  and  _518
REMARK  217  A    between atoms: _518  and  MG_609
REMARK  218  A    between atoms: _519  and  _521
REMARK  219  A    between atoms: _521  and  _522
REMARK  220  A    between atoms: _521  and  _524
REMARK  221  A    between atoms: _524  and  _525
REMARK  222  A    between atoms: _525  and  _526
REMARK  223  A    between atoms: _528  and  _530
REMARK  224  A    between atoms: _530  and  _531
REMARK  225  A    between atoms: _530  and  _533
REMARK  226  A    between atoms: _533  and  _534
REMARK  227  A    between atoms: _539  and  _541
REMARK  228  A    between atoms: _541  and  _542
REMARK  229  A    between atoms: _541  and  _544
REMARK  230  A    between atoms: _544  and  _545
REMARK  231  A    between atoms: _545  and  _546
REMARK  232  A    between atoms: _546  and  _547
REMARK  233  A    between atoms: _556  and  _558
REMARK  234  A    between atoms: _558  and  _559
REMARK  235  A    between atoms: _558  and  _561
REMARK  236  A    between atoms: _561  and  _562
REMARK  237  A    between atoms: _562  and  _563
REMARK  238  A    between atoms: _568  and  _570
REMARK  239  A    between atoms: _570  and  _571
REMARK  240  A    between atoms: _570  and  _573
REMARK  241  A    between atoms: _573  and  _574
REMARK  242  A    between atoms: _579  and  _581
REMARK  243  A    between atoms: _581  and  _582
REMARK  244  A    between atoms: _581  and  _584
REMARK  245  A    between atoms: _584  and  _585
REMARK  246  A    between atoms: _588  and  _590
REMARK  247  A    between atoms: _590  and  _591
REMARK  248  A    between atoms: _590  and  _593
REMARK  249  A    between atoms: _593  and  _594
REMARK  250  A    between atoms: _599  and  _601
REMARK  251  A    between atoms: _601  and  _602
REMARK  252  A    between atoms: _601  and  _604
REMARK  253  A    between atoms: _604  and  _605
REMARK  254  A    between atoms: _605  and  _606
REMARK                            x       y       z     vdW  Elec       q    Type
REMARK                         _______ _______ _______ _____ _____    ______ ____
ROOT
ATOM      1  O   HOH     1     -28.590 -19.441  18.302  0.00  0.00    +0.000 OA
ENDROOT
TORSDOF 0
REMARK  Name = ../refined-set-2016/3rv4/3rv4_pocket.pdb
REMARK  254 active torsions:
REMARK  status: ('A' for Active; 'I' for Inactive)
REMARK    1  A    between atoms: _1  and  _3
REMARK    2  A    between atoms: _3  and  _4
REMARK    3  A    between atoms: _3  and  _6
REMARK    4  A    between atoms: _6  and  _7
REMARK    5  A    between atoms: _7  and  _8
REMARK    6  A    between atoms: _11  and  _13
REMARK    7  A    between atoms: _13  and  _14
REMARK    8  A    between atoms: _13  and  _16
REMARK    9  A    between atoms: _16  and  _17
REMARK   10  A    between atoms: _17  and  _18
REMARK   11  A    between atoms: _18  and  _19
REMARK   12  A    between atoms: _19  and  _20
REMARK   13  A    between atoms: _24  and  _26
REMARK   14  A    between atoms: _26  and  _27
REMARK   15  A    between atoms: _26  and  _29
REMARK   16  A    between atoms: _29  and  _30
REMARK   17  A    between atoms: _33  and  _35
REMARK   18  A    between atoms: _35  and  _36
REMARK   19  A    between atoms: _35  and  _38
REMARK   20  A    between atoms: _42  and  _43
REMARK   21  A    between atoms: _49  and  _50
REMARK   22  A    between atoms: _55  and  _57
REMARK   23  A    between atoms: _57  and  _58
REMARK   24  A    between atoms: _57  and  _60
REMARK   25  A    between atoms: _63  and  _65
REMARK   26  A    between atoms: _65  and  _66
REMARK   27  A    between atoms: _65  and  _68
REMARK   28  A    between atoms: _68  and  _69
REMARK   29  A    between atoms: _72  and  _74
REMARK   30  A    between atoms: _74  and  _75
REMARK   31  A    between atoms: _74  and  _77
REMARK   32  A    between atoms: _77  and  _78
REMARK   33  A    between atoms: _81  and  _83
REMARK   34  A    between atoms: _83  and  _84
REMARK   35  A    between atoms: _83  and  _86
REMARK   36  A    between atoms: _86  and  _87
REMARK   37  A    between atoms: _87  and  _88
REMARK   38  A    between atoms: _88  and  _89
REMARK   39  A    between atoms: _89  and  _90
REMARK   40  A    between atoms: _94  and  _96
REMARK   41  A    between atoms: _96  and  _97
REMARK   42  A    between atoms: _100  and  _102
REMARK   43  A    between atoms: _102  and  _103
REMARK   44  A    between atoms: _102  and  _105
REMARK   45  A    between atoms: _105  and  _106
REMARK   46  A    between atoms: _108  and  _110
REMARK   47  A    between atoms: _110  and  _111
REMARK   48  A    between atoms: _113  and  _115
REMARK   49  A    between atoms: _115  and  _116
REMARK   50  A    between atoms: _118  and  _120
REMARK   51  A    between atoms: _120  and  _121
REMARK   52  A    between atoms: _123  and  _125
REMARK   53  A    between atoms: _125  and  _126
REMARK   54  A    between atoms: _128  and  _130
REMARK   55  A    between atoms: _130  and  _131
REMARK   56  A    between atoms: _133  and  _135
REMARK   57  A    between atoms: _135  and  _136
REMARK   58  A    between atoms: _135  and  _138
REMARK   59  A    between atoms: _138  and  _139
REMARK   60  A    between atoms: _139  and  _140
REMARK   61  A    between atoms: _140  and  _141
REMARK   62  A    between atoms: _150  and  _152
REMARK   63  A    between atoms: _152  and  _153
REMARK   64  A    between atoms: _155  and  _157
REMARK   65  A    between atoms: _157  and  _158
REMARK   66  A    between atoms: _157  and  _160
REMARK   67  A    between atoms: _160  and  _161
REMARK   68  A    between atoms: _161  and  _162
REMARK   69  A    between atoms: _164  and  _166
REMARK   70  A    between atoms: _166  and  _167
REMARK   71  A    between atoms: _166  and  _169
REMARK   72  A    between atoms: _172  and  _174
REMARK   73  A    between atoms: _174  and  _175
REMARK   74  A    between atoms: _174  and  _177
REMARK   75  A    between atoms: _177  and  _178
REMARK   76  A    between atoms: _184  and  _186
REMARK   77  A    between atoms: _186  and  _187
REMARK   78  A    between atoms: _186  and  _189
REMARK   79  A    between atoms: _189  and  _190
REMARK   80  A    between atoms: _195  and  _196
REMARK   81  A    between atoms: _198  and  _200
REMARK   82  A    between atoms: _200  and  _201
REMARK   83  A    between atoms: _200  and  _203
REMARK   84  A    between atoms: _203  and  _204
REMARK   85  A    between atoms: _204  and  _205
REMARK   86  A    between atoms: _207  and  _209
REMARK   87  A    between atoms: _209  and  _210
REMARK   88  A    between atoms: _209  and  _212
REMARK   89  A    between atoms: _212  and  _213
REMARK   90  A    between atoms: _213  and  _214
REMARK   91  A    between atoms: _217  and  _219
REMARK   92  A    between atoms: _219  and  _220
REMARK   93  A    between atoms: _219  and  _222
REMARK   94  A    between atoms: _222  and  _223
REMARK   95  A    between atoms: _223  and  _224
REMARK   96  A    between atoms: _224  and  _225
REMARK   97  A    between atoms: _225  and  _226
REMARK   98  A    between atoms: _230  and  _232
REMARK   99  A    between atoms: _232  and  _233
REMARK  100  A    between atoms: _232  and  _235
REMARK  101  A    between atoms: _235  and  _236
REMARK  102  A    between atoms: _241  and  _242
REMARK  103  A    between atoms: _244  and  _246
REMARK  104  A    between atoms: _246  and  _247
REMARK  105  A    between atoms: _246  and  _249
REMARK  106  A    between atoms: _249  and  _250
REMARK  107  A    between atoms: _253  and  _255
REMARK  108  A    between atoms: _255  and  _256
REMARK  109  A    between atoms: _255  and  _258
REMARK  110  A    between atoms: _258  and  _259
REMARK  111  A    between atoms: _259  and  _260
REMARK  112  A    between atoms: _263  and  _265
REMARK  113  A    between atoms: _265  and  _266
REMARK  114  A    between atoms: _265  and  _268
REMARK  115  A    between atoms: _268  and  _269
REMARK  116  A    between atoms: _275  and  _276
REMARK  117  A    between atoms: _281  and  _283
REMARK  118  A    between atoms: _283  and  _284
REMARK  119  A    between atoms: _283  and  _286
REMARK  120  A    between atoms: _286  and  _287
REMARK  121  A    between atoms: _287  and  _288
REMARK  122  A    between atoms: _288  and  _289
REMARK  123  A    between atoms: _298  and  _300
REMARK  124  A    between atoms: _300  and  _301
REMARK  125  A    between atoms: _300  and  _303
REMARK  126  A    between atoms: _303  and  _304
REMARK  127  A    between atoms: _309  and  _311
REMARK  128  A    between atoms: _311  and  _312
REMARK  129  A    between atoms: _311  and  _314
REMARK  130  A    between atoms: _317  and  _319
REMARK  131  A    between atoms: _319  and  _320
REMARK  132  A    between atoms: _319  and  _322
REMARK  133  A    between atoms: _322  and  _323
REMARK  134  A    between atoms: _323  and  _324
REMARK  135  A    between atoms: _327  and  _329
REMARK  136  A    between atoms: _329  and  _330
REMARK  137  A    between atoms: _329  and  _332
REMARK  138  A    between atoms: _334  and  _336
REMARK  139  A    between atoms: _336  and  _337
REMARK  140  A    between atoms: _336  and  _339
REMARK  141  A    between atoms: _339  and  _340
REMARK  142  A    between atoms: _342  and  _344
REMARK  143  A    between atoms: _344  and  _345
REMARK  144  A    between atoms: _344  and  _347
REMARK  145  A    between atoms: _347  and  _348
REMARK  146  A    between atoms: _348  and  _349
REMARK  147  A    between atoms: _351  and  _353
REMARK  148  A    between atoms: _353  and  _354
REMARK  149  A    between atoms: _353  and  _356
REMARK  150  A    between atoms: _356  and  _357
REMARK  151  A    between atoms: _357  and  _358
REMARK  152  A    between atoms: _363  and  _365
REMARK  153  A    between atoms: _365  and  _366
REMARK  154  A    between atoms: _365  and  _368
REMARK  155  A    between atoms: _368  and  _369
REMARK  156  A    between atoms: _369  and  _370
REMARK  157  A    between atoms: _370  and  _371
REMARK  158  A    between atoms: _380  and  _382
REMARK  159  A    between atoms: _382  and  _383
REMARK  160  A    between atoms: _382  and  _385
REMARK  161  A    between atoms: _385  and  _386
REMARK  162  A    between atoms: _386  and  _387
REMARK  163  A    between atoms: _387  and  _388
REMARK  164  A    between atoms: _397  and  _399
REMARK  165  A    between atoms: _399  and  _400
REMARK  166  A    between atoms: _399  and  _402
REMARK  167  A    between atoms: _402  and  _403
REMARK  168  A    between atoms: _408  and  _410
REMARK  169  A    between atoms: _410  and  _411
REMARK  170  A    between atoms: _410  and  _413
REMARK  171  A    between atoms: _413  and  _414
REMARK  172  A    between atoms: _414  and  _415
REMARK  173  A    between atoms: _420  and  _422
REMARK  174  A    between atoms: _422  and  _423
REMARK  175  A    between atoms: _422  and  _425
REMARK  176  A    between atoms: _425  and  _426
REMARK  177  A    between atoms: _426  and  _427
REMARK  178  A    between atoms: _427  and  _428
REMARK  179  A    between atoms: _428  and  _429
REMARK  180  A    between atoms: _433  and  _435
REMARK  181  A    between atoms: _435  and  _436
REMARK  182  A    between atoms: _435  and  _438
REMARK  183  A    between atoms: _438  and  _439
REMARK  184  A    between atoms: _439  and  _440
REMARK  185  A    between atoms: _443  and  _445
REMARK  186  A    between atoms: _445  and  _446
REMARK  187  A    between atoms: _445  and  _448
REMARK  188  A    between atoms: _448  and  _449
REMARK  189  A    between atoms: _455  and  _457
REMARK  190  A    between atoms: _457  and  _458
REMARK  191  A    between atoms: _457  and  _460
REMARK  192  A    between atoms: _460  and  _461
REMARK  193  A    between atoms: _464  and  _466
REMARK  194  A    between atoms: _466  and  _467
REMARK  195  A    between atoms: _466  and  _469
REMARK  196  A    between atoms: _469  and  _470
REMARK  197  A    between atoms: _470  and  _471
REMARK  198  A    between atoms: _474  and  _476
REMARK  199  A    between atoms: _476  and  _477
REMARK  200  A    between atoms: _476  and  _479
REMARK  201  A    between atoms: _479  and  _480
REMARK  202  A    between atoms: _485  and  _486
REMARK  203  A    between atoms: _488  and  _490
REMARK  204  A    between atoms: _490  and  _491
REMARK  205  A    between atoms: _490  and  _493
REMARK  206  A    between atoms: _493  and  _494
REMARK  207  A    between atoms: _500  and  _502
REMARK  208  A    between atoms: _502  and  _503
REMARK  209  A    between atoms: _502  and  _505
REMARK  210  A    between atoms: _505  and  _506
REMARK  211  A    between atoms: _509  and  _511
REMARK  212  A    between atoms: _511  and  _512
REMARK  213  A    between atoms: _511  and  _514
REMARK  214  A    between atoms: _514  and  _515
REMARK  215  A    between atoms: _515  and  _516
REMARK  216  A    between atoms: _516  and  _518
REMARK  217  A    between atoms: _518  and  MG_609
REMARK  218  A    between atoms: _519  and  _521
REMARK  219  A    between atoms: _521  and  _522
REMARK  220  A    between atoms: _521  and  _524
REMARK  221  A    between atoms: _524  and  _525
REMARK  222  A    between atoms: _525  and  _526
REMARK  223  A    between atoms: _528  and  _530
REMARK  224  A    between atoms: _530  and  _531
REMARK  225  A    between atoms: _530  and  _533
REMARK  226  A    between atoms: _533  and  _534
REMARK  227  A    between atoms: _539  and  _541
REMARK  228  A    between atoms: _541  and  _542
REMARK  229  A    between atoms: _541  and  _544
REMARK  230  A    between atoms: _544  and  _545
REMARK  231  A    between atoms: _545  and  _546
REMARK  232  A    between atoms: _546  and  _547
REMARK  233  A    between atoms: _556  and  _558
REMARK  234  A    between atoms: _558  and  _559
REMARK  235  A    between atoms: _558  and  _561
REMARK  236  A    between atoms: _561  and  _562
REMARK  237  A    between atoms: _562  and  _563
REMARK  238  A    between atoms: _568  and  _570
REMARK  239  A    between atoms: _570  and  _571
REMARK  240  A    between atoms: _570  and  _573
REMARK  241  A    between atoms: _573  and  _574
REMARK  242  A    between atoms: _579  and  _581
REMARK  243  A    between atoms: _581  and  _582
REMARK  244  A    between atoms: _581  and  _584
REMARK  245  A    between atoms: _584  and  _585
REMARK  246  A    between atoms: _588  and  _590
REMARK  247  A    between atoms: _590  and  _591
REMARK  248  A    between atoms: _590  and  _593
REMARK  249  A    between atoms: _593  and  _594
REMARK  250  A    between atoms: _599  and  _601
REMARK  251  A    between atoms: _601  and  _602
REMARK  252  A    between atoms: _601  and  _604
REMARK  253  A    between atoms: _604  and  _605
REMARK  254  A    between atoms: _605  and  _606
REMARK                            x       y       z     vdW  Elec       q    Type
REMARK                         _______ _______ _______ _____ _____    ______ ____
ROOT
ATOM      1  O   HOH     1     -27.064 -23.710  11.817  0.00  0.00    +0.000 OA
ENDROOT
TORSDOF 0
REMARK  Name = ../refined-set-2016/3rv4/3rv4_pocket.pdb
REMARK  254 active torsions:
REMARK  status: ('A' for Active; 'I' for Inactive)
REMARK    1  A    between atoms: _1  and  _3
REMARK    2  A    between atoms: _3  and  _4
REMARK    3  A    between atoms: _3  and  _6
REMARK    4  A    between atoms: _6  and  _7
REMARK    5  A    between atoms: _7  and  _8
REMARK    6  A    between atoms: _11  and  _13
REMARK    7  A    between atoms: _13  and  _14
REMARK    8  A    between atoms: _13  and  _16
REMARK    9  A    between atoms: _16  and  _17
REMARK   10  A    between atoms: _17  and  _18
REMARK   11  A    between atoms: _18  and  _19
REMARK   12  A    between atoms: _19  and  _20
REMARK   13  A    between atoms: _24  and  _26
REMARK   14  A    between atoms: _26  and  _27
REMARK   15  A    between atoms: _26  and  _29
REMARK   16  A    between atoms: _29  and  _30
REMARK   17  A    between atoms: _33  and  _35
REMARK   18  A    between atoms: _35  and  _36
REMARK   19  A    between atoms: _35  and  _38
REMARK   20  A    between atoms: _42  and  _43
REMARK   21  A    between atoms: _49  and  _50
REMARK   22  A    between atoms: _55  and  _57
REMARK   23  A    between atoms: _57  and  _58
REMARK   24  A    between atoms: _57  and  _60
REMARK   25  A    between atoms: _63  and  _65
REMARK   26  A    between atoms: _65  and  _66
REMARK   27  A    between atoms: _65  and  _68
REMARK   28  A    between atoms: _68  and  _69
REMARK   29  A    between atoms: _72  and  _74
REMARK   30  A    between atoms: _74  and  _75
REMARK   31  A    between atoms: _74  and  _77
REMARK   32  A    between atoms: _77  and  _78
REMARK   33  A    between atoms: _81  and  _83
REMARK   34  A    between atoms: _83  and  _84
REMARK   35  A    between atoms: _83  and  _86
REMARK   36  A    between atoms: _86  and  _87
REMARK   37  A    between atoms: _87  and  _88
REMARK   38  A    between atoms: _88  and  _89
REMARK   39  A    between atoms: _89  and  _90
REMARK   40  A    between atoms: _94  and  _96
REMARK   41  A    between atoms: _96  and  _97
REMARK   42  A    between atoms: _100  and  _102
REMARK   43  A    between atoms: _102  and  _103
REMARK   44  A    between atoms: _102  and  _105
REMARK   45  A    between atoms: _105  and  _106
REMARK   46  A    between atoms: _108  and  _110
REMARK   47  A    between atoms: _110  and  _111
REMARK   48  A    between atoms: _113  and  _115
REMARK   49  A    between atoms: _115  and  _116
REMARK   50  A    between atoms: _118  and  _120
REMARK   51  A    between atoms: _120  and  _121
REMARK   52  A    between atoms: _123  and  _125
REMARK   53  A    between atoms: _125  and  _126
REMARK   54  A    between atoms: _128  and  _130
REMARK   55  A    between atoms: _130  and  _131
REMARK   56  A    between atoms: _133  and  _135
REMARK   57  A    between atoms: _135  and  _136
REMARK   58  A    between atoms: _135  and  _138
REMARK   59  A    between atoms: _138  and  _139
REMARK   60  A    between atoms: _139  and  _140
REMARK   61  A    between atoms: _140  and  _141
REMARK   62  A    between atoms: _150  and  _152
REMARK   63  A    between atoms: _152  and  _153
REMARK   64  A    between atoms: _155  and  _157
REMARK   65  A    between atoms: _157  and  _158
REMARK   66  A    between atoms: _157  and  _160
REMARK   67  A    between atoms: _160  and  _161
REMARK   68  A    between atoms: _161  and  _162
REMARK   69  A    between atoms: _164  and  _166
REMARK   70  A    between atoms: _166  and  _167
REMARK   71  A    between atoms: _166  and  _169
REMARK   72  A    between atoms: _172  and  _174
REMARK   73  A    between atoms: _174  and  _175
REMARK   74  A    between atoms: _174  and  _177
REMARK   75  A    between atoms: _177  and  _178
REMARK   76  A    between atoms: _184  and  _186
REMARK   77  A    between atoms: _186  and  _187
REMARK   78  A    between atoms: _186  and  _189
REMARK   79  A    between atoms: _189  and  _190
REMARK   80  A    between atoms: _195  and  _196
REMARK   81  A    between atoms: _198  and  _200
REMARK   82  A    between atoms: _200  and  _201
REMARK   83  A    between atoms: _200  and  _203
REMARK   84  A    between atoms: _203  and  _204
REMARK   85  A    between atoms: _204  and  _205
REMARK   86  A    between atoms: _207  and  _209
REMARK   87  A    between atoms: _209  and  _210
REMARK   88  A    between atoms: _209  and  _212
REMARK   89  A    between atoms: _212  and  _213
REMARK   90  A    between atoms: _213  and  _214
REMARK   91  A    between atoms: _217  and  _219
REMARK   92  A    between atoms: _219  and  _220
REMARK   93  A    between atoms: _219  and  _222
REMARK   94  A    between atoms: _222  and  _223
REMARK   95  A    between atoms: _223  and  _224
REMARK   96  A    between atoms: _224  and  _225
REMARK   97  A    between atoms: _225  and  _226
REMARK   98  A    between atoms: _230  and  _232
REMARK   99  A    between atoms: _232  and  _233
REMARK  100  A    between atoms: _232  and  _235
REMARK  101  A    between atoms: _235  and  _236
REMARK  102  A    between atoms: _241  and  _242
REMARK  103  A    between atoms: _244  and  _246
REMARK  104  A    between atoms: _246  and  _247
REMARK  105  A    between atoms: _246  and  _249
REMARK  106  A    between atoms: _249  and  _250
REMARK  107  A    between atoms: _253  and  _255
REMARK  108  A    between atoms: _255  and  _256
REMARK  109  A    between atoms: _255  and  _258
REMARK  110  A    between atoms: _258  and  _259
REMARK  111  A    between atoms: _259  and  _260
REMARK  112  A    between atoms: _263  and  _265
REMARK  113  A    between atoms: _265  and  _266
REMARK  114  A    between atoms: _265  and  _268
REMARK  115  A    between atoms: _268  and  _269
REMARK  116  A    between atoms: _275  and  _276
REMARK  117  A    between atoms: _281  and  _283
REMARK  118  A    between atoms: _283  and  _284
REMARK  119  A    between atoms: _283  and  _286
REMARK  120  A    between atoms: _286  and  _287
REMARK  121  A    between atoms: _287  and  _288
REMARK  122  A    between atoms: _288  and  _289
REMARK  123  A    between atoms: _298  and  _300
REMARK  124  A    between atoms: _300  and  _301
REMARK  125  A    between atoms: _300  and  _303
REMARK  126  A    between atoms: _303  and  _304
REMARK  127  A    between atoms: _309  and  _311
REMARK  128  A    between atoms: _311  and  _312
REMARK  129  A    between atoms: _311  and  _314
REMARK  130  A    between atoms: _317  and  _319
REMARK  131  A    between atoms: _319  and  _320
REMARK  132  A    between atoms: _319  and  _322
REMARK  133  A    between atoms: _322  and  _323
REMARK  134  A    between atoms: _323  and  _324
REMARK  135  A    between atoms: _327  and  _329
REMARK  136  A    between atoms: _329  and  _330
REMARK  137  A    between atoms: _329  and  _332
REMARK  138  A    between atoms: _334  and  _336
REMARK  139  A    between atoms: _336  and  _337
REMARK  140  A    between atoms: _336  and  _339
REMARK  141  A    between atoms: _339  and  _340
REMARK  142  A    between atoms: _342  and  _344
REMARK  143  A    between atoms: _344  and  _345
REMARK  144  A    between atoms: _344  and  _347
REMARK  145  A    between atoms: _347  and  _348
REMARK  146  A    between atoms: _348  and  _349
REMARK  147  A    between atoms: _351  and  _353
REMARK  148  A    between atoms: _353  and  _354
REMARK  149  A    between atoms: _353  and  _356
REMARK  150  A    between atoms: _356  and  _357
REMARK  151  A    between atoms: _357  and  _358
REMARK  152  A    between atoms: _363  and  _365
REMARK  153  A    between atoms: _365  and  _366
REMARK  154  A    between atoms: _365  and  _368
REMARK  155  A    between atoms: _368  and  _369
REMARK  156  A    between atoms: _369  and  _370
REMARK  157  A    between atoms: _370  and  _371
REMARK  158  A    between atoms: _380  and  _382
REMARK  159  A    between atoms: _382  and  _383
REMARK  160  A    between atoms: _382  and  _385
REMARK  161  A    between atoms: _385  and  _386
REMARK  162  A    between atoms: _386  and  _387
REMARK  163  A    between atoms: _387  and  _388
REMARK  164  A    between atoms: _397  and  _399
REMARK  165  A    between atoms: _399  and  _400
REMARK  166  A    between atoms: _399  and  _402
REMARK  167  A    between atoms: _402  and  _403
REMARK  168  A    between atoms: _408  and  _410
REMARK  169  A    between atoms: _410  and  _411
REMARK  170  A    between atoms: _410  and  _413
REMARK  171  A    between atoms: _413  and  _414
REMARK  172  A    between atoms: _414  and  _415
REMARK  173  A    between atoms: _420  and  _422
REMARK  174  A    between atoms: _422  and  _423
REMARK  175  A    between atoms: _422  and  _425
REMARK  176  A    between atoms: _425  and  _426
REMARK  177  A    between atoms: _426  and  _427
REMARK  178  A    between atoms: _427  and  _428
REMARK  179  A    between atoms: _428  and  _429
REMARK  180  A    between atoms: _433  and  _435
REMARK  181  A    between atoms: _435  and  _436
REMARK  182  A    between atoms: _435  and  _438
REMARK  183  A    between atoms: _438  and  _439
REMARK  184  A    between atoms: _439  and  _440
REMARK  185  A    between atoms: _443  and  _445
REMARK  186  A    between atoms: _445  and  _446
REMARK  187  A    between atoms: _445  and  _448
REMARK  188  A    between atoms: _448  and  _449
REMARK  189  A    between atoms: _455  and  _457
REMARK  190  A    between atoms: _457  and  _458
REMARK  191  A    between atoms: _457  and  _460
REMARK  192  A    between atoms: _460  and  _461
REMARK  193  A    between atoms: _464  and  _466
REMARK  194  A    between atoms: _466  and  _467
REMARK  195  A    between atoms: _466  and  _469
REMARK  196  A    between atoms: _469  and  _470
REMARK  197  A    between atoms: _470  and  _471
REMARK  198  A    between atoms: _474  and  _476
REMARK  199  A    between atoms: _476  and  _477
REMARK  200  A    between atoms: _476  and  _479
REMARK  201  A    between atoms: _479  and  _480
REMARK  202  A    between atoms: _485  and  _486
REMARK  203  A    between atoms: _488  and  _490
REMARK  204  A    between atoms: _490  and  _491
REMARK  205  A    between atoms: _490  and  _493
REMARK  206  A    between atoms: _493  and  _494
REMARK  207  A    between atoms: _500  and  _502
REMARK  208  A    between atoms: _502  and  _503
REMARK  209  A    between atoms: _502  and  _505
REMARK  210  A    between atoms: _505  and  _506
REMARK  211  A    between atoms: _509  and  _511
REMARK  212  A    between atoms: _511  and  _512
REMARK  213  A    between atoms: _511  and  _514
REMARK  214  A    between atoms: _514  and  _515
REMARK  215  A    between atoms: _515  and  _516
REMARK  216  A    between atoms: _516  and  _518
REMARK  217  A    between atoms: _518  and  MG_609
REMARK  218  A    between atoms: _519  and  _521
REMARK  219  A    between atoms: _521  and  _522
REMARK  220  A    between atoms: _521  and  _524
REMARK  221  A    between atoms: _524  and  _525
REMARK  222  A    between atoms: _525  and  _526
REMARK  223  A    between atoms: _528  and  _530
REMARK  224  A    between atoms: _530  and  _531
REMARK  225  A    between atoms: _530  and  _533
REMARK  226  A    between atoms: _533  and  _534
REMARK  227  A    between atoms: _539  and  _541
REMARK  228  A    between atoms: _541  and  _542
REMARK  229  A    between atoms: _541  and  _544
REMARK  230  A    between atoms: _544  and  _545
REMARK  231  A    between atoms: _545  and  _546
REMARK  232  A    between atoms: _546  and  _547
REMARK  233  A    between atoms: _556  and  _558
REMARK  234  A    between atoms: _558  and  _559
REMARK  235  A    between atoms: _558  and  _561
REMARK  236  A    between atoms: _561  and  _562
REMARK  237  A    between atoms: _562  and  _563
REMARK  238  A    between atoms: _568  and  _570
REMARK  239  A    between atoms: _570  and  _571
REMARK  240  A    between atoms: _570  and  _573
REMARK  241  A    between atoms: _573  and  _574
REMARK  242  A    between atoms: _579  and  _581
REMARK  243  A    between atoms: _581  and  _582
REMARK  244  A    between atoms: _581  and  _584
REMARK  245  A    between atoms: _584  and  _585
REMARK  246  A    between atoms: _588  and  _590
REMARK  247  A    between atoms: _590  and  _591
REMARK  248  A    between atoms: _590  and  _593
REMARK  249  A    between atoms: _593  and  _594
REMARK  250  A    between atoms: _599  and  _601
REMARK  251  A    between atoms: _601  and  _602
REMARK  252  A    between atoms: _601  and  _604
REMARK  253  A    between atoms: _604  and  _605
REMARK  254  A    between atoms: _605  and  _606
REMARK                            x       y       z     vdW  Elec       q    Type
REMARK                         _______ _______ _______ _____ _____    ______ ____
ROOT
ATOM      1  O   HOH     1     -34.826 -18.049   9.127  0.00  0.00    +0.000 OA
ENDROOT
TORSDOF 0
REMARK  Name = ../refined-set-2016/3rv4/3rv4_pocket.pdb
REMARK  254 active torsions:
REMARK  status: ('A' for Active; 'I' for Inactive)
REMARK    1  A    between atoms: _1  and  _3
REMARK    2  A    between atoms: _3  and  _4
REMARK    3  A    between atoms: _3  and  _6
REMARK    4  A    between atoms: _6  and  _7
REMARK    5  A    between atoms: _7  and  _8
REMARK    6  A    between atoms: _11  and  _13
REMARK    7  A    between atoms: _13  and  _14
REMARK    8  A    between atoms: _13  and  _16
REMARK    9  A    between atoms: _16  and  _17
REMARK   10  A    between atoms: _17  and  _18
REMARK   11  A    between atoms: _18  and  _19
REMARK   12  A    between atoms: _19  and  _20
REMARK   13  A    between atoms: _24  and  _26
REMARK   14  A    between atoms: _26  and  _27
REMARK   15  A    between atoms: _26  and  _29
REMARK   16  A    between atoms: _29  and  _30
REMARK   17  A    between atoms: _33  and  _35
REMARK   18  A    between atoms: _35  and  _36
REMARK   19  A    between atoms: _35  and  _38
REMARK   20  A    between atoms: _42  and  _43
REMARK   21  A    between atoms: _49  and  _50
REMARK   22  A    between atoms: _55  and  _57
REMARK   23  A    between atoms: _57  and  _58
REMARK   24  A    between atoms: _57  and  _60
REMARK   25  A    between atoms: _63  and  _65
REMARK   26  A    between atoms: _65  and  _66
REMARK   27  A    between atoms: _65  and  _68
REMARK   28  A    between atoms: _68  and  _69
REMARK   29  A    between atoms: _72  and  _74
REMARK   30  A    between atoms: _74  and  _75
REMARK   31  A    between atoms: _74  and  _77
REMARK   32  A    between atoms: _77  and  _78
REMARK   33  A    between atoms: _81  and  _83
REMARK   34  A    between atoms: _83  and  _84
REMARK   35  A    between atoms: _83  and  _86
REMARK   36  A    between atoms: _86  and  _87
REMARK   37  A    between atoms: _87  and  _88
REMARK   38  A    between atoms: _88  and  _89
REMARK   39  A    between atoms: _89  and  _90
REMARK   40  A    between atoms: _94  and  _96
REMARK   41  A    between atoms: _96  and  _97
REMARK   42  A    between atoms: _100  and  _102
REMARK   43  A    between atoms: _102  and  _103
REMARK   44  A    between atoms: _102  and  _105
REMARK   45  A    between atoms: _105  and  _106
REMARK   46  A    between atoms: _108  and  _110
REMARK   47  A    between atoms: _110  and  _111
REMARK   48  A    between atoms: _113  and  _115
REMARK   49  A    between atoms: _115  and  _116
REMARK   50  A    between atoms: _118  and  _120
REMARK   51  A    between atoms: _120  and  _121
REMARK   52  A    between atoms: _123  and  _125
REMARK   53  A    between atoms: _125  and  _126
REMARK   54  A    between atoms: _128  and  _130
REMARK   55  A    between atoms: _130  and  _131
REMARK   56  A    between atoms: _133  and  _135
REMARK   57  A    between atoms: _135  and  _136
REMARK   58  A    between atoms: _135  and  _138
REMARK   59  A    between atoms: _138  and  _139
REMARK   60  A    between atoms: _139  and  _140
REMARK   61  A    between atoms: _140  and  _141
REMARK   62  A    between atoms: _150  and  _152
REMARK   63  A    between atoms: _152  and  _153
REMARK   64  A    between atoms: _155  and  _157
REMARK   65  A    between atoms: _157  and  _158
REMARK   66  A    between atoms: _157  and  _160
REMARK   67  A    between atoms: _160  and  _161
REMARK   68  A    between atoms: _161  and  _162
REMARK   69  A    between atoms: _164  and  _166
REMARK   70  A    between atoms: _166  and  _167
REMARK   71  A    between atoms: _166  and  _169
REMARK   72  A    between atoms: _172  and  _174
REMARK   73  A    between atoms: _174  and  _175
REMARK   74  A    between atoms: _174  and  _177
REMARK   75  A    between atoms: _177  and  _178
REMARK   76  A    between atoms: _184  and  _186
REMARK   77  A    between atoms: _186  and  _187
REMARK   78  A    between atoms: _186  and  _189
REMARK   79  A    between atoms: _189  and  _190
REMARK   80  A    between atoms: _195  and  _196
REMARK   81  A    between atoms: _198  and  _200
REMARK   82  A    between atoms: _200  and  _201
REMARK   83  A    between atoms: _200  and  _203
REMARK   84  A    between atoms: _203  and  _204
REMARK   85  A    between atoms: _204  and  _205
REMARK   86  A    between atoms: _207  and  _209
REMARK   87  A    between atoms: _209  and  _210
REMARK   88  A    between atoms: _209  and  _212
REMARK   89  A    between atoms: _212  and  _213
REMARK   90  A    between atoms: _213  and  _214
REMARK   91  A    between atoms: _217  and  _219
REMARK   92  A    between atoms: _219  and  _220
REMARK   93  A    between atoms: _219  and  _222
REMARK   94  A    between atoms: _222  and  _223
REMARK   95  A    between atoms: _223  and  _224
REMARK   96  A    between atoms: _224  and  _225
REMARK   97  A    between atoms: _225  and  _226
REMARK   98  A    between atoms: _230  and  _232
REMARK   99  A    between atoms: _232  and  _233
REMARK  100  A    between atoms: _232  and  _235
REMARK  101  A    between atoms: _235  and  _236
REMARK  102  A    between atoms: _241  and  _242
REMARK  103  A    between atoms: _244  and  _246
REMARK  104  A    between atoms: _246  and  _247
REMARK  105  A    between atoms: _246  and  _249
REMARK  106  A    between atoms: _249  and  _250
REMARK  107  A    between atoms: _253  and  _255
REMARK  108  A    between atoms: _255  and  _256
REMARK  109  A    between atoms: _255  and  _258
REMARK  110  A    between atoms: _258  and  _259
REMARK  111  A    between atoms: _259  and  _260
REMARK  112  A    between atoms: _263  and  _265
REMARK  113  A    between atoms: _265  and  _266
REMARK  114  A    between atoms: _265  and  _268
REMARK  115  A    between atoms: _268  and  _269
REMARK  116  A    between atoms: _275  and  _276
REMARK  117  A    between atoms: _281  and  _283
REMARK  118  A    between atoms: _283  and  _284
REMARK  119  A    between atoms: _283  and  _286
REMARK  120  A    between atoms: _286  and  _287
REMARK  121  A    between atoms: _287  and  _288
REMARK  122  A    between atoms: _288  and  _289
REMARK  123  A    between atoms: _298  and  _300
REMARK  124  A    between atoms: _300  and  _301
REMARK  125  A    between atoms: _300  and  _303
REMARK  126  A    between atoms: _303  and  _304
REMARK  127  A    between atoms: _309  and  _311
REMARK  128  A    between atoms: _311  and  _312
REMARK  129  A    between atoms: _311  and  _314
REMARK  130  A    between atoms: _317  and  _319
REMARK  131  A    between atoms: _319  and  _320
REMARK  132  A    between atoms: _319  and  _322
REMARK  133  A    between atoms: _322  and  _323
REMARK  134  A    between atoms: _323  and  _324
REMARK  135  A    between atoms: _327  and  _329
REMARK  136  A    between atoms: _329  and  _330
REMARK  137  A    between atoms: _329  and  _332
REMARK  138  A    between atoms: _334  and  _336
REMARK  139  A    between atoms: _336  and  _337
REMARK  140  A    between atoms: _336  and  _339
REMARK  141  A    between atoms: _339  and  _340
REMARK  142  A    between atoms: _342  and  _344
REMARK  143  A    between atoms: _344  and  _345
REMARK  144  A    between atoms: _344  and  _347
REMARK  145  A    between atoms: _347  and  _348
REMARK  146  A    between atoms: _348  and  _349
REMARK  147  A    between atoms: _351  and  _353
REMARK  148  A    between atoms: _353  and  _354
REMARK  149  A    between atoms: _353  and  _356
REMARK  150  A    between atoms: _356  and  _357
REMARK  151  A    between atoms: _357  and  _358
REMARK  152  A    between atoms: _363  and  _365
REMARK  153  A    between atoms: _365  and  _366
REMARK  154  A    between atoms: _365  and  _368
REMARK  155  A    between atoms: _368  and  _369
REMARK  156  A    between atoms: _369  and  _370
REMARK  157  A    between atoms: _370  and  _371
REMARK  158  A    between atoms: _380  and  _382
REMARK  159  A    between atoms: _382  and  _383
REMARK  160  A    between atoms: _382  and  _385
REMARK  161  A    between atoms: _385  and  _386
REMARK  162  A    between atoms: _386  and  _387
REMARK  163  A    between atoms: _387  and  _388
REMARK  164  A    between atoms: _397  and  _399
REMARK  165  A    between atoms: _399  and  _400
REMARK  166  A    between atoms: _399  and  _402
REMARK  167  A    between atoms: _402  and  _403
REMARK  168  A    between atoms: _408  and  _410
REMARK  169  A    between atoms: _410  and  _411
REMARK  170  A    between atoms: _410  and  _413
REMARK  171  A    between atoms: _413  and  _414
REMARK  172  A    between atoms: _414  and  _415
REMARK  173  A    between atoms: _420  and  _422
REMARK  174  A    between atoms: _422  and  _423
REMARK  175  A    between atoms: _422  and  _425
REMARK  176  A    between atoms: _425  and  _426
REMARK  177  A    between atoms: _426  and  _427
REMARK  178  A    between atoms: _427  and  _428
REMARK  179  A    between atoms: _428  and  _429
REMARK  180  A    between atoms: _433  and  _435
REMARK  181  A    between atoms: _435  and  _436
REMARK  182  A    between atoms: _435  and  _438
REMARK  183  A    between atoms: _438  and  _439
REMARK  184  A    between atoms: _439  and  _440
REMARK  185  A    between atoms: _443  and  _445
REMARK  186  A    between atoms: _445  and  _446
REMARK  187  A    between atoms: _445  and  _448
REMARK  188  A    between atoms: _448  and  _449
REMARK  189  A    between atoms: _455  and  _457
REMARK  190  A    between atoms: _457  and  _458
REMARK  191  A    between atoms: _457  and  _460
REMARK  192  A    between atoms: _460  and  _461
REMARK  193  A    between atoms: _464  and  _466
REMARK  194  A    between atoms: _466  and  _467
REMARK  195  A    between atoms: _466  and  _469
REMARK  196  A    between atoms: _469  and  _470
REMARK  197  A    between atoms: _470  and  _471
REMARK  198  A    between atoms: _474  and  _476
REMARK  199  A    between atoms: _476  and  _477
REMARK  200  A    between atoms: _476  and  _479
REMARK  201  A    between atoms: _479  and  _480
REMARK  202  A    between atoms: _485  and  _486
REMARK  203  A    between atoms: _488  and  _490
REMARK  204  A    between atoms: _490  and  _491
REMARK  205  A    between atoms: _490  and  _493
REMARK  206  A    between atoms: _493  and  _494
REMARK  207  A    between atoms: _500  and  _502
REMARK  208  A    between atoms: _502  and  _503
REMARK  209  A    between atoms: _502  and  _505
REMARK  210  A    between atoms: _505  and  _506
REMARK  211  A    between atoms: _509  and  _511
REMARK  212  A    between atoms: _511  and  _512
REMARK  213  A    between atoms: _511  and  _514
REMARK  214  A    between atoms: _514  and  _515
REMARK  215  A    between atoms: _515  and  _516
REMARK  216  A    between atoms: _516  and  _518
REMARK  217  A    between atoms: _518  and  MG_609
REMARK  218  A    between atoms: _519  and  _521
REMARK  219  A    between atoms: _521  and  _522
REMARK  220  A    between atoms: _521  and  _524
REMARK  221  A    between atoms: _524  and  _525
REMARK  222  A    between atoms: _525  and  _526
REMARK  223  A    between atoms: _528  and  _530
REMARK  224  A    between atoms: _530  and  _531
REMARK  225  A    between atoms: _530  and  _533
REMARK  226  A    between atoms: _533  and  _534
REMARK  227  A    between atoms: _539  and  _541
REMARK  228  A    between atoms: _541  and  _542
REMARK  229  A    between atoms: _541  and  _544
REMARK  230  A    between atoms: _544  and  _545
REMARK  231  A    between atoms: _545  and  _546
REMARK  232  A    between atoms: _546  and  _547
REMARK  233  A    between atoms: _556  and  _558
REMARK  234  A    between atoms: _558  and  _559
REMARK  235  A    between atoms: _558  and  _561
REMARK  236  A    between atoms: _561  and  _562
REMARK  237  A    between atoms: _562  and  _563
REMARK  238  A    between atoms: _568  and  _570
REMARK  239  A    between atoms: _570  and  _571
REMARK  240  A    between atoms: _570  and  _573
REMARK  241  A    between atoms: _573  and  _574
REMARK  242  A    between atoms: _579  and  _581
REMARK  243  A    between atoms: _581  and  _582
REMARK  244  A    between atoms: _581  and  _584
REMARK  245  A    between atoms: _584  and  _585
REMARK  246  A    between atoms: _588  and  _590
REMARK  247  A    between atoms: _590  and  _591
REMARK  248  A    between atoms: _590  and  _593
REMARK  249  A    between atoms: _593  and  _594
REMARK  250  A    between atoms: _599  and  _601
REMARK  251  A    between atoms: _601  and  _602
REMARK  252  A    between atoms: _601  and  _604
REMARK  253  A    between atoms: _604  and  _605
REMARK  254  A    between atoms: _605  and  _606
REMARK                            x       y       z     vdW  Elec       q    Type
REMARK                         _______ _______ _______ _____ _____    ______ ____
ROOT
ATOM      1  O   HOH     1     -36.621 -16.056   5.902  0.00  0.00    +0.000 OA
ENDROOT
TORSDOF 0
REMARK  Name = ../refined-set-2016/3rv4/3rv4_pocket.pdb
REMARK  254 active torsions:
REMARK  status: ('A' for Active; 'I' for Inactive)
REMARK    1  A    between atoms: _1  and  _3
REMARK    2  A    between atoms: _3  and  _4
REMARK    3  A    between atoms: _3  and  _6
REMARK    4  A    between atoms: _6  and  _7
REMARK    5  A    between atoms: _7  and  _8
REMARK    6  A    between atoms: _11  and  _13
REMARK    7  A    between atoms: _13  and  _14
REMARK    8  A    between atoms: _13  and  _16
REMARK    9  A    between atoms: _16  and  _17
REMARK   10  A    between atoms: _17  and  _18
REMARK   11  A    between atoms: _18  and  _19
REMARK   12  A    between atoms: _19  and  _20
REMARK   13  A    between atoms: _24  and  _26
REMARK   14  A    between atoms: _26  and  _27
REMARK   15  A    between atoms: _26  and  _29
REMARK   16  A    between atoms: _29  and  _30
REMARK   17  A    between atoms: _33  and  _35
REMARK   18  A    between atoms: _35  and  _36
REMARK   19  A    between atoms: _35  and  _38
REMARK   20  A    between atoms: _42  and  _43
REMARK   21  A    between atoms: _49  and  _50
REMARK   22  A    between atoms: _55  and  _57
REMARK   23  A    between atoms: _57  and  _58
REMARK   24  A    between atoms: _57  and  _60
REMARK   25  A    between atoms: _63  and  _65
REMARK   26  A    between atoms: _65  and  _66
REMARK   27  A    between atoms: _65  and  _68
REMARK   28  A    between atoms: _68  and  _69
REMARK   29  A    between atoms: _72  and  _74
REMARK   30  A    between atoms: _74  and  _75
REMARK   31  A    between atoms: _74  and  _77
REMARK   32  A    between atoms: _77  and  _78
REMARK   33  A    between atoms: _81  and  _83
REMARK   34  A    between atoms: _83  and  _84
REMARK   35  A    between atoms: _83  and  _86
REMARK   36  A    between atoms: _86  and  _87
REMARK   37  A    between atoms: _87  and  _88
REMARK   38  A    between atoms: _88  and  _89
REMARK   39  A    between atoms: _89  and  _90
REMARK   40  A    between atoms: _94  and  _96
REMARK   41  A    between atoms: _96  and  _97
REMARK   42  A    between atoms: _100  and  _102
REMARK   43  A    between atoms: _102  and  _103
REMARK   44  A    between atoms: _102  and  _105
REMARK   45  A    between atoms: _105  and  _106
REMARK   46  A    between atoms: _108  and  _110
REMARK   47  A    between atoms: _110  and  _111
REMARK   48  A    between atoms: _113  and  _115
REMARK   49  A    between atoms: _115  and  _116
REMARK   50  A    between atoms: _118  and  _120
REMARK   51  A    between atoms: _120  and  _121
REMARK   52  A    between atoms: _123  and  _125
REMARK   53  A    between atoms: _125  and  _126
REMARK   54  A    between atoms: _128  and  _130
REMARK   55  A    between atoms: _130  and  _131
REMARK   56  A    between atoms: _133  and  _135
REMARK   57  A    between atoms: _135  and  _136
REMARK   58  A    between atoms: _135  and  _138
REMARK   59  A    between atoms: _138  and  _139
REMARK   60  A    between atoms: _139  and  _140
REMARK   61  A    between atoms: _140  and  _141
REMARK   62  A    between atoms: _150  and  _152
REMARK   63  A    between atoms: _152  and  _153
REMARK   64  A    between atoms: _155  and  _157
REMARK   65  A    between atoms: _157  and  _158
REMARK   66  A    between atoms: _157  and  _160
REMARK   67  A    between atoms: _160  and  _161
REMARK   68  A    between atoms: _161  and  _162
REMARK   69  A    between atoms: _164  and  _166
REMARK   70  A    between atoms: _166  and  _167
REMARK   71  A    between atoms: _166  and  _169
REMARK   72  A    between atoms: _172  and  _174
REMARK   73  A    between atoms: _174  and  _175
REMARK   74  A    between atoms: _174  and  _177
REMARK   75  A    between atoms: _177  and  _178
REMARK   76  A    between atoms: _184  and  _186
REMARK   77  A    between atoms: _186  and  _187
REMARK   78  A    between atoms: _186  and  _189
REMARK   79  A    between atoms: _189  and  _190
REMARK   80  A    between atoms: _195  and  _196
REMARK   81  A    between atoms: _198  and  _200
REMARK   82  A    between atoms: _200  and  _201
REMARK   83  A    between atoms: _200  and  _203
REMARK   84  A    between atoms: _203  and  _204
REMARK   85  A    between atoms: _204  and  _205
REMARK   86  A    between atoms: _207  and  _209
REMARK   87  A    between atoms: _209  and  _210
REMARK   88  A    between atoms: _209  and  _212
REMARK   89  A    between atoms: _212  and  _213
REMARK   90  A    between atoms: _213  and  _214
REMARK   91  A    between atoms: _217  and  _219
REMARK   92  A    between atoms: _219  and  _220
REMARK   93  A    between atoms: _219  and  _222
REMARK   94  A    between atoms: _222  and  _223
REMARK   95  A    between atoms: _223  and  _224
REMARK   96  A    between atoms: _224  and  _225
REMARK   97  A    between atoms: _225  and  _226
REMARK   98  A    between atoms: _230  and  _232
REMARK   99  A    between atoms: _232  and  _233
REMARK  100  A    between atoms: _232  and  _235
REMARK  101  A    between atoms: _235  and  _236
REMARK  102  A    between atoms: _241  and  _242
REMARK  103  A    between atoms: _244  and  _246
REMARK  104  A    between atoms: _246  and  _247
REMARK  105  A    between atoms: _246  and  _249
REMARK  106  A    between atoms: _249  and  _250
REMARK  107  A    between atoms: _253  and  _255
REMARK  108  A    between atoms: _255  and  _256
REMARK  109  A    between atoms: _255  and  _258
REMARK  110  A    between atoms: _258  and  _259
REMARK  111  A    between atoms: _259  and  _260
REMARK  112  A    between atoms: _263  and  _265
REMARK  113  A    between atoms: _265  and  _266
REMARK  114  A    between atoms: _265  and  _268
REMARK  115  A    between atoms: _268  and  _269
REMARK  116  A    between atoms: _275  and  _276
REMARK  117  A    between atoms: _281  and  _283
REMARK  118  A    between atoms: _283  and  _284
REMARK  119  A    between atoms: _283  and  _286
REMARK  120  A    between atoms: _286  and  _287
REMARK  121  A    between atoms: _287  and  _288
REMARK  122  A    between atoms: _288  and  _289
REMARK  123  A    between atoms: _298  and  _300
REMARK  124  A    between atoms: _300  and  _301
REMARK  125  A    between atoms: _300  and  _303
REMARK  126  A    between atoms: _303  and  _304
REMARK  127  A    between atoms: _309  and  _311
REMARK  128  A    between atoms: _311  and  _312
REMARK  129  A    between atoms: _311  and  _314
REMARK  130  A    between atoms: _317  and  _319
REMARK  131  A    between atoms: _319  and  _320
REMARK  132  A    between atoms: _319  and  _322
REMARK  133  A    between atoms: _322  and  _323
REMARK  134  A    between atoms: _323  and  _324
REMARK  135  A    between atoms: _327  and  _329
REMARK  136  A    between atoms: _329  and  _330
REMARK  137  A    between atoms: _329  and  _332
REMARK  138  A    between atoms: _334  and  _336
REMARK  139  A    between atoms: _336  and  _337
REMARK  140  A    between atoms: _336  and  _339
REMARK  141  A    between atoms: _339  and  _340
REMARK  142  A    between atoms: _342  and  _344
REMARK  143  A    between atoms: _344  and  _345
REMARK  144  A    between atoms: _344  and  _347
REMARK  145  A    between atoms: _347  and  _348
REMARK  146  A    between atoms: _348  and  _349
REMARK  147  A    between atoms: _351  and  _353
REMARK  148  A    between atoms: _353  and  _354
REMARK  149  A    between atoms: _353  and  _356
REMARK  150  A    between atoms: _356  and  _357
REMARK  151  A    between atoms: _357  and  _358
REMARK  152  A    between atoms: _363  and  _365
REMARK  153  A    between atoms: _365  and  _366
REMARK  154  A    between atoms: _365  and  _368
REMARK  155  A    between atoms: _368  and  _369
REMARK  156  A    between atoms: _369  and  _370
REMARK  157  A    between atoms: _370  and  _371
REMARK  158  A    between atoms: _380  and  _382
REMARK  159  A    between atoms: _382  and  _383
REMARK  160  A    between atoms: _382  and  _385
REMARK  161  A    between atoms: _385  and  _386
REMARK  162  A    between atoms: _386  and  _387
REMARK  163  A    between atoms: _387  and  _388
REMARK  164  A    between atoms: _397  and  _399
REMARK  165  A    between atoms: _399  and  _400
REMARK  166  A    between atoms: _399  and  _402
REMARK  167  A    between atoms: _402  and  _403
REMARK  168  A    between atoms: _408  and  _410
REMARK  169  A    between atoms: _410  and  _411
REMARK  170  A    between atoms: _410  and  _413
REMARK  171  A    between atoms: _413  and  _414
REMARK  172  A    between atoms: _414  and  _415
REMARK  173  A    between atoms: _420  and  _422
REMARK  174  A    between atoms: _422  and  _423
REMARK  175  A    between atoms: _422  and  _425
REMARK  176  A    between atoms: _425  and  _426
REMARK  177  A    between atoms: _426  and  _427
REMARK  178  A    between atoms: _427  and  _428
REMARK  179  A    between atoms: _428  and  _429
REMARK  180  A    between atoms: _433  and  _435
REMARK  181  A    between atoms: _435  and  _436
REMARK  182  A    between atoms: _435  and  _438
REMARK  183  A    between atoms: _438  and  _439
REMARK  184  A    between atoms: _439  and  _440
REMARK  185  A    between atoms: _443  and  _445
REMARK  186  A    between atoms: _445  and  _446
REMARK  187  A    between atoms: _445  and  _448
REMARK  188  A    between atoms: _448  and  _449
REMARK  189  A    between atoms: _455  and  _457
REMARK  190  A    between atoms: _457  and  _458
REMARK  191  A    between atoms: _457  and  _460
REMARK  192  A    between atoms: _460  and  _461
REMARK  193  A    between atoms: _464  and  _466
REMARK  194  A    between atoms: _466  and  _467
REMARK  195  A    between atoms: _466  and  _469
REMARK  196  A    between atoms: _469  and  _470
REMARK  197  A    between atoms: _470  and  _471
REMARK  198  A    between atoms: _474  and  _476
REMARK  199  A    between atoms: _476  and  _477
REMARK  200  A    between atoms: _476  and  _479
REMARK  201  A    between atoms: _479  and  _480
REMARK  202  A    between atoms: _485  and  _486
REMARK  203  A    between atoms: _488  and  _490
REMARK  204  A    between atoms: _490  and  _491
REMARK  205  A    between atoms: _490  and  _493
REMARK  206  A    between atoms: _493  and  _494
REMARK  207  A    between atoms: _500  and  _502
REMARK  208  A    between atoms: _502  and  _503
REMARK  209  A    between atoms: _502  and  _505
REMARK  210  A    between atoms: _505  and  _506
REMARK  211  A    between atoms: _509  and  _511
REMARK  212  A    between atoms: _511  and  _512
REMARK  213  A    between atoms: _511  and  _514
REMARK  214  A    between atoms: _514  and  _515
REMARK  215  A    between atoms: _515  and  _516
REMARK  216  A    between atoms: _516  and  _518
REMARK  217  A    between atoms: _518  and  MG_609
REMARK  218  A    between atoms: _519  and  _521
REMARK  219  A    between atoms: _521  and  _522
REMARK  220  A    between atoms: _521  and  _524
REMARK  221  A    between atoms: _524  and  _525
REMARK  222  A    between atoms: _525  and  _526
REMARK  223  A    between atoms: _528  and  _530
REMARK  224  A    between atoms: _530  and  _531
REMARK  225  A    between atoms: _530  and  _533
REMARK  226  A    between atoms: _533  and  _534
REMARK  227  A    between atoms: _539  and  _541
REMARK  228  A    between atoms: _541  and  _542
REMARK  229  A    between atoms: _541  and  _544
REMARK  230  A    between atoms: _544  and  _545
REMARK  231  A    between atoms: _545  and  _546
REMARK  232  A    between atoms: _546  and  _547
REMARK  233  A    between atoms: _556  and  _558
REMARK  234  A    between atoms: _558  and  _559
REMARK  235  A    between atoms: _558  and  _561
REMARK  236  A    between atoms: _561  and  _562
REMARK  237  A    between atoms: _562  and  _563
REMARK  238  A    between atoms: _568  and  _570
REMARK  239  A    between atoms: _570  and  _571
REMARK  240  A    between atoms: _570  and  _573
REMARK  241  A    between atoms: _573  and  _574
REMARK  242  A    between atoms: _579  and  _581
REMARK  243  A    between atoms: _581  and  _582
REMARK  244  A    between atoms: _581  and  _584
REMARK  245  A    between atoms: _584  and  _585
REMARK  246  A    between atoms: _588  and  _590
REMARK  247  A    between atoms: _590  and  _591
REMARK  248  A    between atoms: _590  and  _593
REMARK  249  A    between atoms: _593  and  _594
REMARK  250  A    between atoms: _599  and  _601
REMARK  251  A    between atoms: _601  and  _602
REMARK  252  A    between atoms: _601  and  _604
REMARK  253  A    between atoms: _604  and  _605
REMARK  254  A    between atoms: _605  and  _606
REMARK                            x       y       z     vdW  Elec       q    Type
REMARK                         _______ _______ _______ _____ _____    ______ ____
ROOT
ATOM      1  O   HOH     1     -30.169 -17.609  19.597  0.00  0.00    +0.000 OA
ENDROOT
TORSDOF 0
REMARK  Name = ../refined-set-2016/3rv4/3rv4_pocket.pdb
REMARK  254 active torsions:
REMARK  status: ('A' for Active; 'I' for Inactive)
REMARK    1  A    between atoms: _1  and  _3
REMARK    2  A    between atoms: _3  and  _4
REMARK    3  A    between atoms: _3  and  _6
REMARK    4  A    between atoms: _6  and  _7
REMARK    5  A    between atoms: _7  and  _8
REMARK    6  A    between atoms: _11  and  _13
REMARK    7  A    between atoms: _13  and  _14
REMARK    8  A    between atoms: _13  and  _16
REMARK    9  A    between atoms: _16  and  _17
REMARK   10  A    between atoms: _17  and  _18
REMARK   11  A    between atoms: _18  and  _19
REMARK   12  A    between atoms: _19  and  _20
REMARK   13  A    between atoms: _24  and  _26
REMARK   14  A    between atoms: _26  and  _27
REMARK   15  A    between atoms: _26  and  _29
REMARK   16  A    between atoms: _29  and  _30
REMARK   17  A    between atoms: _33  and  _35
REMARK   18  A    between atoms: _35  and  _36
REMARK   19  A    between atoms: _35  and  _38
REMARK   20  A    between atoms: _42  and  _43
REMARK   21  A    between atoms: _49  and  _50
REMARK   22  A    between atoms: _55  and  _57
REMARK   23  A    between atoms: _57  and  _58
REMARK   24  A    between atoms: _57  and  _60
REMARK   25  A    between atoms: _63  and  _65
REMARK   26  A    between atoms: _65  and  _66
REMARK   27  A    between atoms: _65  and  _68
REMARK   28  A    between atoms: _68  and  _69
REMARK   29  A    between atoms: _72  and  _74
REMARK   30  A    between atoms: _74  and  _75
REMARK   31  A    between atoms: _74  and  _77
REMARK   32  A    between atoms: _77  and  _78
REMARK   33  A    between atoms: _81  and  _83
REMARK   34  A    between atoms: _83  and  _84
REMARK   35  A    between atoms: _83  and  _86
REMARK   36  A    between atoms: _86  and  _87
REMARK   37  A    between atoms: _87  and  _88
REMARK   38  A    between atoms: _88  and  _89
REMARK   39  A    between atoms: _89  and  _90
REMARK   40  A    between atoms: _94  and  _96
REMARK   41  A    between atoms: _96  and  _97
REMARK   42  A    between atoms: _100  and  _102
REMARK   43  A    between atoms: _102  and  _103
REMARK   44  A    between atoms: _102  and  _105
REMARK   45  A    between atoms: _105  and  _106
REMARK   46  A    between atoms: _108  and  _110
REMARK   47  A    between atoms: _110  and  _111
REMARK   48  A    between atoms: _113  and  _115
REMARK   49  A    between atoms: _115  and  _116
REMARK   50  A    between atoms: _118  and  _120
REMARK   51  A    between atoms: _120  and  _121
REMARK   52  A    between atoms: _123  and  _125
REMARK   53  A    between atoms: _125  and  _126
REMARK   54  A    between atoms: _128  and  _130
REMARK   55  A    between atoms: _130  and  _131
REMARK   56  A    between atoms: _133  and  _135
REMARK   57  A    between atoms: _135  and  _136
REMARK   58  A    between atoms: _135  and  _138
REMARK   59  A    between atoms: _138  and  _139
REMARK   60  A    between atoms: _139  and  _140
REMARK   61  A    between atoms: _140  and  _141
REMARK   62  A    between atoms: _150  and  _152
REMARK   63  A    between atoms: _152  and  _153
REMARK   64  A    between atoms: _155  and  _157
REMARK   65  A    between atoms: _157  and  _158
REMARK   66  A    between atoms: _157  and  _160
REMARK   67  A    between atoms: _160  and  _161
REMARK   68  A    between atoms: _161  and  _162
REMARK   69  A    between atoms: _164  and  _166
REMARK   70  A    between atoms: _166  and  _167
REMARK   71  A    between atoms: _166  and  _169
REMARK   72  A    between atoms: _172  and  _174
REMARK   73  A    between atoms: _174  and  _175
REMARK   74  A    between atoms: _174  and  _177
REMARK   75  A    between atoms: _177  and  _178
REMARK   76  A    between atoms: _184  and  _186
REMARK   77  A    between atoms: _186  and  _187
REMARK   78  A    between atoms: _186  and  _189
REMARK   79  A    between atoms: _189  and  _190
REMARK   80  A    between atoms: _195  and  _196
REMARK   81  A    between atoms: _198  and  _200
REMARK   82  A    between atoms: _200  and  _201
REMARK   83  A    between atoms: _200  and  _203
REMARK   84  A    between atoms: _203  and  _204
REMARK   85  A    between atoms: _204  and  _205
REMARK   86  A    between atoms: _207  and  _209
REMARK   87  A    between atoms: _209  and  _210
REMARK   88  A    between atoms: _209  and  _212
REMARK   89  A    between atoms: _212  and  _213
REMARK   90  A    between atoms: _213  and  _214
REMARK   91  A    between atoms: _217  and  _219
REMARK   92  A    between atoms: _219  and  _220
REMARK   93  A    between atoms: _219  and  _222
REMARK   94  A    between atoms: _222  and  _223
REMARK   95  A    between atoms: _223  and  _224
REMARK   96  A    between atoms: _224  and  _225
REMARK   97  A    between atoms: _225  and  _226
REMARK   98  A    between atoms: _230  and  _232
REMARK   99  A    between atoms: _232  and  _233
REMARK  100  A    between atoms: _232  and  _235
REMARK  101  A    between atoms: _235  and  _236
REMARK  102  A    between atoms: _241  and  _242
REMARK  103  A    between atoms: _244  and  _246
REMARK  104  A    between atoms: _246  and  _247
REMARK  105  A    between atoms: _246  and  _249
REMARK  106  A    between atoms: _249  and  _250
REMARK  107  A    between atoms: _253  and  _255
REMARK  108  A    between atoms: _255  and  _256
REMARK  109  A    between atoms: _255  and  _258
REMARK  110  A    between atoms: _258  and  _259
REMARK  111  A    between atoms: _259  and  _260
REMARK  112  A    between atoms: _263  and  _265
REMARK  113  A    between atoms: _265  and  _266
REMARK  114  A    between atoms: _265  and  _268
REMARK  115  A    between atoms: _268  and  _269
REMARK  116  A    between atoms: _275  and  _276
REMARK  117  A    between atoms: _281  and  _283
REMARK  118  A    between atoms: _283  and  _284
REMARK  119  A    between atoms: _283  and  _286
REMARK  120  A    between atoms: _286  and  _287
REMARK  121  A    between atoms: _287  and  _288
REMARK  122  A    between atoms: _288  and  _289
REMARK  123  A    between atoms: _298  and  _300
REMARK  124  A    between atoms: _300  and  _301
REMARK  125  A    between atoms: _300  and  _303
REMARK  126  A    between atoms: _303  and  _304
REMARK  127  A    between atoms: _309  and  _311
REMARK  128  A    between atoms: _311  and  _312
REMARK  129  A    between atoms: _311  and  _314
REMARK  130  A    between atoms: _317  and  _319
REMARK  131  A    between atoms: _319  and  _320
REMARK  132  A    between atoms: _319  and  _322
REMARK  133  A    between atoms: _322  and  _323
REMARK  134  A    between atoms: _323  and  _324
REMARK  135  A    between atoms: _327  and  _329
REMARK  136  A    between atoms: _329  and  _330
REMARK  137  A    between atoms: _329  and  _332
REMARK  138  A    between atoms: _334  and  _336
REMARK  139  A    between atoms: _336  and  _337
REMARK  140  A    between atoms: _336  and  _339
REMARK  141  A    between atoms: _339  and  _340
REMARK  142  A    between atoms: _342  and  _344
REMARK  143  A    between atoms: _344  and  _345
REMARK  144  A    between atoms: _344  and  _347
REMARK  145  A    between atoms: _347  and  _348
REMARK  146  A    between atoms: _348  and  _349
REMARK  147  A    between atoms: _351  and  _353
REMARK  148  A    between atoms: _353  and  _354
REMARK  149  A    between atoms: _353  and  _356
REMARK  150  A    between atoms: _356  and  _357
REMARK  151  A    between atoms: _357  and  _358
REMARK  152  A    between atoms: _363  and  _365
REMARK  153  A    between atoms: _365  and  _366
REMARK  154  A    between atoms: _365  and  _368
REMARK  155  A    between atoms: _368  and  _369
REMARK  156  A    between atoms: _369  and  _370
REMARK  157  A    between atoms: _370  and  _371
REMARK  158  A    between atoms: _380  and  _382
REMARK  159  A    between atoms: _382  and  _383
REMARK  160  A    between atoms: _382  and  _385
REMARK  161  A    between atoms: _385  and  _386
REMARK  162  A    between atoms: _386  and  _387
REMARK  163  A    between atoms: _387  and  _388
REMARK  164  A    between atoms: _397  and  _399
REMARK  165  A    between atoms: _399  and  _400
REMARK  166  A    between atoms: _399  and  _402
REMARK  167  A    between atoms: _402  and  _403
REMARK  168  A    between atoms: _408  and  _410
REMARK  169  A    between atoms: _410  and  _411
REMARK  170  A    between atoms: _410  and  _413
REMARK  171  A    between atoms: _413  and  _414
REMARK  172  A    between atoms: _414  and  _415
REMARK  173  A    between atoms: _420  and  _422
REMARK  174  A    between atoms: _422  and  _423
REMARK  175  A    between atoms: _422  and  _425
REMARK  176  A    between atoms: _425  and  _426
REMARK  177  A    between atoms: _426  and  _427
REMARK  178  A    between atoms: _427  and  _428
REMARK  179  A    between atoms: _428  and  _429
REMARK  180  A    between atoms: _433  and  _435
REMARK  181  A    between atoms: _435  and  _436
REMARK  182  A    between atoms: _435  and  _438
REMARK  183  A    between atoms: _438  and  _439
REMARK  184  A    between atoms: _439  and  _440
REMARK  185  A    between atoms: _443  and  _445
REMARK  186  A    between atoms: _445  and  _446
REMARK  187  A    between atoms: _445  and  _448
REMARK  188  A    between atoms: _448  and  _449
REMARK  189  A    between atoms: _455  and  _457
REMARK  190  A    between atoms: _457  and  _458
REMARK  191  A    between atoms: _457  and  _460
REMARK  192  A    between atoms: _460  and  _461
REMARK  193  A    between atoms: _464  and  _466
REMARK  194  A    between atoms: _466  and  _467
REMARK  195  A    between atoms: _466  and  _469
REMARK  196  A    between atoms: _469  and  _470
REMARK  197  A    between atoms: _470  and  _471
REMARK  198  A    between atoms: _474  and  _476
REMARK  199  A    between atoms: _476  and  _477
REMARK  200  A    between atoms: _476  and  _479
REMARK  201  A    between atoms: _479  and  _480
REMARK  202  A    between atoms: _485  and  _486
REMARK  203  A    between atoms: _488  and  _490
REMARK  204  A    between atoms: _490  and  _491
REMARK  205  A    between atoms: _490  and  _493
REMARK  206  A    between atoms: _493  and  _494
REMARK  207  A    between atoms: _500  and  _502
REMARK  208  A    between atoms: _502  and  _503
REMARK  209  A    between atoms: _502  and  _505
REMARK  210  A    between atoms: _505  and  _506
REMARK  211  A    between atoms: _509  and  _511
REMARK  212  A    between atoms: _511  and  _512
REMARK  213  A    between atoms: _511  and  _514
REMARK  214  A    between atoms: _514  and  _515
REMARK  215  A    between atoms: _515  and  _516
REMARK  216  A    between atoms: _516  and  _518
REMARK  217  A    between atoms: _518  and  MG_609
REMARK  218  A    between atoms: _519  and  _521
REMARK  219  A    between atoms: _521  and  _522
REMARK  220  A    between atoms: _521  and  _524
REMARK  221  A    between atoms: _524  and  _525
REMARK  222  A    between atoms: _525  and  _526
REMARK  223  A    between atoms: _528  and  _530
REMARK  224  A    between atoms: _530  and  _531
REMARK  225  A    between atoms: _530  and  _533
REMARK  226  A    between atoms: _533  and  _534
REMARK  227  A    between atoms: _539  and  _541
REMARK  228  A    between atoms: _541  and  _542
REMARK  229  A    between atoms: _541  and  _544
REMARK  230  A    between atoms: _544  and  _545
REMARK  231  A    between atoms: _545  and  _546
REMARK  232  A    between atoms: _546  and  _547
REMARK  233  A    between atoms: _556  and  _558
REMARK  234  A    between atoms: _558  and  _559
REMARK  235  A    between atoms: _558  and  _561
REMARK  236  A    between atoms: _561  and  _562
REMARK  237  A    between atoms: _562  and  _563
REMARK  238  A    between atoms: _568  and  _570
REMARK  239  A    between atoms: _570  and  _571
REMARK  240  A    between atoms: _570  and  _573
REMARK  241  A    between atoms: _573  and  _574
REMARK  242  A    between atoms: _579  and  _581
REMARK  243  A    between atoms: _581  and  _582
REMARK  244  A    between atoms: _581  and  _584
REMARK  245  A    between atoms: _584  and  _585
REMARK  246  A    between atoms: _588  and  _590
REMARK  247  A    between atoms: _590  and  _591
REMARK  248  A    between atoms: _590  and  _593
REMARK  249  A    between atoms: _593  and  _594
REMARK  250  A    between atoms: _599  and  _601
REMARK  251  A    between atoms: _601  and  _602
REMARK  252  A    between atoms: _601  and  _604
REMARK  253  A    between atoms: _604  and  _605
REMARK  254  A    between atoms: _605  and  _606
REMARK                            x       y       z     vdW  Elec       q    Type
REMARK                         _______ _______ _______ _____ _____    ______ ____
ROOT
ATOM      1  O   HOH     1     -21.631 -15.498  20.151  0.00  0.00    +0.000 OA
ENDROOT
TORSDOF 0
REMARK  Name = ../refined-set-2016/3rv4/3rv4_pocket.pdb
REMARK  254 active torsions:
REMARK  status: ('A' for Active; 'I' for Inactive)
REMARK    1  A    between atoms: _1  and  _3
REMARK    2  A    between atoms: _3  and  _4
REMARK    3  A    between atoms: _3  and  _6
REMARK    4  A    between atoms: _6  and  _7
REMARK    5  A    between atoms: _7  and  _8
REMARK    6  A    between atoms: _11  and  _13
REMARK    7  A    between atoms: _13  and  _14
REMARK    8  A    between atoms: _13  and  _16
REMARK    9  A    between atoms: _16  and  _17
REMARK   10  A    between atoms: _17  and  _18
REMARK   11  A    between atoms: _18  and  _19
REMARK   12  A    between atoms: _19  and  _20
REMARK   13  A    between atoms: _24  and  _26
REMARK   14  A    between atoms: _26  and  _27
REMARK   15  A    between atoms: _26  and  _29
REMARK   16  A    between atoms: _29  and  _30
REMARK   17  A    between atoms: _33  and  _35
REMARK   18  A    between atoms: _35  and  _36
REMARK   19  A    between atoms: _35  and  _38
REMARK   20  A    between atoms: _42  and  _43
REMARK   21  A    between atoms: _49  and  _50
REMARK   22  A    between atoms: _55  and  _57
REMARK   23  A    between atoms: _57  and  _58
REMARK   24  A    between atoms: _57  and  _60
REMARK   25  A    between atoms: _63  and  _65
REMARK   26  A    between atoms: _65  and  _66
REMARK   27  A    between atoms: _65  and  _68
REMARK   28  A    between atoms: _68  and  _69
REMARK   29  A    between atoms: _72  and  _74
REMARK   30  A    between atoms: _74  and  _75
REMARK   31  A    between atoms: _74  and  _77
REMARK   32  A    between atoms: _77  and  _78
REMARK   33  A    between atoms: _81  and  _83
REMARK   34  A    between atoms: _83  and  _84
REMARK   35  A    between atoms: _83  and  _86
REMARK   36  A    between atoms: _86  and  _87
REMARK   37  A    between atoms: _87  and  _88
REMARK   38  A    between atoms: _88  and  _89
REMARK   39  A    between atoms: _89  and  _90
REMARK   40  A    between atoms: _94  and  _96
REMARK   41  A    between atoms: _96  and  _97
REMARK   42  A    between atoms: _100  and  _102
REMARK   43  A    between atoms: _102  and  _103
REMARK   44  A    between atoms: _102  and  _105
REMARK   45  A    between atoms: _105  and  _106
REMARK   46  A    between atoms: _108  and  _110
REMARK   47  A    between atoms: _110  and  _111
REMARK   48  A    between atoms: _113  and  _115
REMARK   49  A    between atoms: _115  and  _116
REMARK   50  A    between atoms: _118  and  _120
REMARK   51  A    between atoms: _120  and  _121
REMARK   52  A    between atoms: _123  and  _125
REMARK   53  A    between atoms: _125  and  _126
REMARK   54  A    between atoms: _128  and  _130
REMARK   55  A    between atoms: _130  and  _131
REMARK   56  A    between atoms: _133  and  _135
REMARK   57  A    between atoms: _135  and  _136
REMARK   58  A    between atoms: _135  and  _138
REMARK   59  A    between atoms: _138  and  _139
REMARK   60  A    between atoms: _139  and  _140
REMARK   61  A    between atoms: _140  and  _141
REMARK   62  A    between atoms: _150  and  _152
REMARK   63  A    between atoms: _152  and  _153
REMARK   64  A    between atoms: _155  and  _157
REMARK   65  A    between atoms: _157  and  _158
REMARK   66  A    between atoms: _157  and  _160
REMARK   67  A    between atoms: _160  and  _161
REMARK   68  A    between atoms: _161  and  _162
REMARK   69  A    between atoms: _164  and  _166
REMARK   70  A    between atoms: _166  and  _167
REMARK   71  A    between atoms: _166  and  _169
REMARK   72  A    between atoms: _172  and  _174
REMARK   73  A    between atoms: _174  and  _175
REMARK   74  A    between atoms: _174  and  _177
REMARK   75  A    between atoms: _177  and  _178
REMARK   76  A    between atoms: _184  and  _186
REMARK   77  A    between atoms: _186  and  _187
REMARK   78  A    between atoms: _186  and  _189
REMARK   79  A    between atoms: _189  and  _190
REMARK   80  A    between atoms: _195  and  _196
REMARK   81  A    between atoms: _198  and  _200
REMARK   82  A    between atoms: _200  and  _201
REMARK   83  A    between atoms: _200  and  _203
REMARK   84  A    between atoms: _203  and  _204
REMARK   85  A    between atoms: _204  and  _205
REMARK   86  A    between atoms: _207  and  _209
REMARK   87  A    between atoms: _209  and  _210
REMARK   88  A    between atoms: _209  and  _212
REMARK   89  A    between atoms: _212  and  _213
REMARK   90  A    between atoms: _213  and  _214
REMARK   91  A    between atoms: _217  and  _219
REMARK   92  A    between atoms: _219  and  _220
REMARK   93  A    between atoms: _219  and  _222
REMARK   94  A    between atoms: _222  and  _223
REMARK   95  A    between atoms: _223  and  _224
REMARK   96  A    between atoms: _224  and  _225
REMARK   97  A    between atoms: _225  and  _226
REMARK   98  A    between atoms: _230  and  _232
REMARK   99  A    between atoms: _232  and  _233
REMARK  100  A    between atoms: _232  and  _235
REMARK  101  A    between atoms: _235  and  _236
REMARK  102  A    between atoms: _241  and  _242
REMARK  103  A    between atoms: _244  and  _246
REMARK  104  A    between atoms: _246  and  _247
REMARK  105  A    between atoms: _246  and  _249
REMARK  106  A    between atoms: _249  and  _250
REMARK  107  A    between atoms: _253  and  _255
REMARK  108  A    between atoms: _255  and  _256
REMARK  109  A    between atoms: _255  and  _258
REMARK  110  A    between atoms: _258  and  _259
REMARK  111  A    between atoms: _259  and  _260
REMARK  112  A    between atoms: _263  and  _265
REMARK  113  A    between atoms: _265  and  _266
REMARK  114  A    between atoms: _265  and  _268
REMARK  115  A    between atoms: _268  and  _269
REMARK  116  A    between atoms: _275  and  _276
REMARK  117  A    between atoms: _281  and  _283
REMARK  118  A    between atoms: _283  and  _284
REMARK  119  A    between atoms: _283  and  _286
REMARK  120  A    between atoms: _286  and  _287
REMARK  121  A    between atoms: _287  and  _288
REMARK  122  A    between atoms: _288  and  _289
REMARK  123  A    between atoms: _298  and  _300
REMARK  124  A    between atoms: _300  and  _301
REMARK  125  A    between atoms: _300  and  _303
REMARK  126  A    between atoms: _303  and  _304
REMARK  127  A    between atoms: _309  and  _311
REMARK  128  A    between atoms: _311  and  _312
REMARK  129  A    between atoms: _311  and  _314
REMARK  130  A    between atoms: _317  and  _319
REMARK  131  A    between atoms: _319  and  _320
REMARK  132  A    between atoms: _319  and  _322
REMARK  133  A    between atoms: _322  and  _323
REMARK  134  A    between atoms: _323  and  _324
REMARK  135  A    between atoms: _327  and  _329
REMARK  136  A    between atoms: _329  and  _330
REMARK  137  A    between atoms: _329  and  _332
REMARK  138  A    between atoms: _334  and  _336
REMARK  139  A    between atoms: _336  and  _337
REMARK  140  A    between atoms: _336  and  _339
REMARK  141  A    between atoms: _339  and  _340
REMARK  142  A    between atoms: _342  and  _344
REMARK  143  A    between atoms: _344  and  _345
REMARK  144  A    between atoms: _344  and  _347
REMARK  145  A    between atoms: _347  and  _348
REMARK  146  A    between atoms: _348  and  _349
REMARK  147  A    between atoms: _351  and  _353
REMARK  148  A    between atoms: _353  and  _354
REMARK  149  A    between atoms: _353  and  _356
REMARK  150  A    between atoms: _356  and  _357
REMARK  151  A    between atoms: _357  and  _358
REMARK  152  A    between atoms: _363  and  _365
REMARK  153  A    between atoms: _365  and  _366
REMARK  154  A    between atoms: _365  and  _368
REMARK  155  A    between atoms: _368  and  _369
REMARK  156  A    between atoms: _369  and  _370
REMARK  157  A    between atoms: _370  and  _371
REMARK  158  A    between atoms: _380  and  _382
REMARK  159  A    between atoms: _382  and  _383
REMARK  160  A    between atoms: _382  and  _385
REMARK  161  A    between atoms: _385  and  _386
REMARK  162  A    between atoms: _386  and  _387
REMARK  163  A    between atoms: _387  and  _388
REMARK  164  A    between atoms: _397  and  _399
REMARK  165  A    between atoms: _399  and  _400
REMARK  166  A    between atoms: _399  and  _402
REMARK  167  A    between atoms: _402  and  _403
REMARK  168  A    between atoms: _408  and  _410
REMARK  169  A    between atoms: _410  and  _411
REMARK  170  A    between atoms: _410  and  _413
REMARK  171  A    between atoms: _413  and  _414
REMARK  172  A    between atoms: _414  and  _415
REMARK  173  A    between atoms: _420  and  _422
REMARK  174  A    between atoms: _422  and  _423
REMARK  175  A    between atoms: _422  and  _425
REMARK  176  A    between atoms: _425  and  _426
REMARK  177  A    between atoms: _426  and  _427
REMARK  178  A    between atoms: _427  and  _428
REMARK  179  A    between atoms: _428  and  _429
REMARK  180  A    between atoms: _433  and  _435
REMARK  181  A    between atoms: _435  and  _436
REMARK  182  A    between atoms: _435  and  _438
REMARK  183  A    between atoms: _438  and  _439
REMARK  184  A    between atoms: _439  and  _440
REMARK  185  A    between atoms: _443  and  _445
REMARK  186  A    between atoms: _445  and  _446
REMARK  187  A    between atoms: _445  and  _448
REMARK  188  A    between atoms: _448  and  _449
REMARK  189  A    between atoms: _455  and  _457
REMARK  190  A    between atoms: _457  and  _458
REMARK  191  A    between atoms: _457  and  _460
REMARK  192  A    between atoms: _460  and  _461
REMARK  193  A    between atoms: _464  and  _466
REMARK  194  A    between atoms: _466  and  _467
REMARK  195  A    between atoms: _466  and  _469
REMARK  196  A    between atoms: _469  and  _470
REMARK  197  A    between atoms: _470  and  _471
REMARK  198  A    between atoms: _474  and  _476
REMARK  199  A    between atoms: _476  and  _477
REMARK  200  A    between atoms: _476  and  _479
REMARK  201  A    between atoms: _479  and  _480
REMARK  202  A    between atoms: _485  and  _486
REMARK  203  A    between atoms: _488  and  _490
REMARK  204  A    between atoms: _490  and  _491
REMARK  205  A    between atoms: _490  and  _493
REMARK  206  A    between atoms: _493  and  _494
REMARK  207  A    between atoms: _500  and  _502
REMARK  208  A    between atoms: _502  and  _503
REMARK  209  A    between atoms: _502  and  _505
REMARK  210  A    between atoms: _505  and  _506
REMARK  211  A    between atoms: _509  and  _511
REMARK  212  A    between atoms: _511  and  _512
REMARK  213  A    between atoms: _511  and  _514
REMARK  214  A    between atoms: _514  and  _515
REMARK  215  A    between atoms: _515  and  _516
REMARK  216  A    between atoms: _516  and  _518
REMARK  217  A    between atoms: _518  and  MG_609
REMARK  218  A    between atoms: _519  and  _521
REMARK  219  A    between atoms: _521  and  _522
REMARK  220  A    between atoms: _521  and  _524
REMARK  221  A    between atoms: _524  and  _525
REMARK  222  A    between atoms: _525  and  _526
REMARK  223  A    between atoms: _528  and  _530
REMARK  224  A    between atoms: _530  and  _531
REMARK  225  A    between atoms: _530  and  _533
REMARK  226  A    between atoms: _533  and  _534
REMARK  227  A    between atoms: _539  and  _541
REMARK  228  A    between atoms: _541  and  _542
REMARK  229  A    between atoms: _541  and  _544
REMARK  230  A    between atoms: _544  and  _545
REMARK  231  A    between atoms: _545  and  _546
REMARK  232  A    between atoms: _546  and  _547
REMARK  233  A    between atoms: _556  and  _558
REMARK  234  A    between atoms: _558  and  _559
REMARK  235  A    between atoms: _558  and  _561
REMARK  236  A    between atoms: _561  and  _562
REMARK  237  A    between atoms: _562  and  _563
REMARK  238  A    between atoms: _568  and  _570
REMARK  239  A    between atoms: _570  and  _571
REMARK  240  A    between atoms: _570  and  _573
REMARK  241  A    between atoms: _573  and  _574
REMARK  242  A    between atoms: _579  and  _581
REMARK  243  A    between atoms: _581  and  _582
REMARK  244  A    between atoms: _581  and  _584
REMARK  245  A    between atoms: _584  and  _585
REMARK  246  A    between atoms: _588  and  _590
REMARK  247  A    between atoms: _590  and  _591
REMARK  248  A    between atoms: _590  and  _593
REMARK  249  A    between atoms: _593  and  _594
REMARK  250  A    between atoms: _599  and  _601
REMARK  251  A    between atoms: _601  and  _602
REMARK  252  A    between atoms: _601  and  _604
REMARK  253  A    between atoms: _604  and  _605
REMARK  254  A    between atoms: _605  and  _606
REMARK                            x       y       z     vdW  Elec       q    Type
REMARK                         _______ _______ _______ _____ _____    ______ ____
ROOT
ATOM      1  O   HOH     1     -21.885 -15.352  15.929  0.00  0.00    +0.000 OA
ENDROOT
TORSDOF 0
REMARK  Name = ../refined-set-2016/3rv4/3rv4_pocket.pdb
REMARK  254 active torsions:
REMARK  status: ('A' for Active; 'I' for Inactive)
REMARK    1  A    between atoms: _1  and  _3
REMARK    2  A    between atoms: _3  and  _4
REMARK    3  A    between atoms: _3  and  _6
REMARK    4  A    between atoms: _6  and  _7
REMARK    5  A    between atoms: _7  and  _8
REMARK    6  A    between atoms: _11  and  _13
REMARK    7  A    between atoms: _13  and  _14
REMARK    8  A    between atoms: _13  and  _16
REMARK    9  A    between atoms: _16  and  _17
REMARK   10  A    between atoms: _17  and  _18
REMARK   11  A    between atoms: _18  and  _19
REMARK   12  A    between atoms: _19  and  _20
REMARK   13  A    between atoms: _24  and  _26
REMARK   14  A    between atoms: _26  and  _27
REMARK   15  A    between atoms: _26  and  _29
REMARK   16  A    between atoms: _29  and  _30
REMARK   17  A    between atoms: _33  and  _35
REMARK   18  A    between atoms: _35  and  _36
REMARK   19  A    between atoms: _35  and  _38
REMARK   20  A    between atoms: _42  and  _43
REMARK   21  A    between atoms: _49  and  _50
REMARK   22  A    between atoms: _55  and  _57
REMARK   23  A    between atoms: _57  and  _58
REMARK   24  A    between atoms: _57  and  _60
REMARK   25  A    between atoms: _63  and  _65
REMARK   26  A    between atoms: _65  and  _66
REMARK   27  A    between atoms: _65  and  _68
REMARK   28  A    between atoms: _68  and  _69
REMARK   29  A    between atoms: _72  and  _74
REMARK   30  A    between atoms: _74  and  _75
REMARK   31  A    between atoms: _74  and  _77
REMARK   32  A    between atoms: _77  and  _78
REMARK   33  A    between atoms: _81  and  _83
REMARK   34  A    between atoms: _83  and  _84
REMARK   35  A    between atoms: _83  and  _86
REMARK   36  A    between atoms: _86  and  _87
REMARK   37  A    between atoms: _87  and  _88
REMARK   38  A    between atoms: _88  and  _89
REMARK   39  A    between atoms: _89  and  _90
REMARK   40  A    between atoms: _94  and  _96
REMARK   41  A    between atoms: _96  and  _97
REMARK   42  A    between atoms: _100  and  _102
REMARK   43  A    between atoms: _102  and  _103
REMARK   44  A    between atoms: _102  and  _105
REMARK   45  A    between atoms: _105  and  _106
REMARK   46  A    between atoms: _108  and  _110
REMARK   47  A    between atoms: _110  and  _111
REMARK   48  A    between atoms: _113  and  _115
REMARK   49  A    between atoms: _115  and  _116
REMARK   50  A    between atoms: _118  and  _120
REMARK   51  A    between atoms: _120  and  _121
REMARK   52  A    between atoms: _123  and  _125
REMARK   53  A    between atoms: _125  and  _126
REMARK   54  A    between atoms: _128  and  _130
REMARK   55  A    between atoms: _130  and  _131
REMARK   56  A    between atoms: _133  and  _135
REMARK   57  A    between atoms: _135  and  _136
REMARK   58  A    between atoms: _135  and  _138
REMARK   59  A    between atoms: _138  and  _139
REMARK   60  A    between atoms: _139  and  _140
REMARK   61  A    between atoms: _140  and  _141
REMARK   62  A    between atoms: _150  and  _152
REMARK   63  A    between atoms: _152  and  _153
REMARK   64  A    between atoms: _155  and  _157
REMARK   65  A    between atoms: _157  and  _158
REMARK   66  A    between atoms: _157  and  _160
REMARK   67  A    between atoms: _160  and  _161
REMARK   68  A    between atoms: _161  and  _162
REMARK   69  A    between atoms: _164  and  _166
REMARK   70  A    between atoms: _166  and  _167
REMARK   71  A    between atoms: _166  and  _169
REMARK   72  A    between atoms: _172  and  _174
REMARK   73  A    between atoms: _174  and  _175
REMARK   74  A    between atoms: _174  and  _177
REMARK   75  A    between atoms: _177  and  _178
REMARK   76  A    between atoms: _184  and  _186
REMARK   77  A    between atoms: _186  and  _187
REMARK   78  A    between atoms: _186  and  _189
REMARK   79  A    between atoms: _189  and  _190
REMARK   80  A    between atoms: _195  and  _196
REMARK   81  A    between atoms: _198  and  _200
REMARK   82  A    between atoms: _200  and  _201
REMARK   83  A    between atoms: _200  and  _203
REMARK   84  A    between atoms: _203  and  _204
REMARK   85  A    between atoms: _204  and  _205
REMARK   86  A    between atoms: _207  and  _209
REMARK   87  A    between atoms: _209  and  _210
REMARK   88  A    between atoms: _209  and  _212
REMARK   89  A    between atoms: _212  and  _213
REMARK   90  A    between atoms: _213  and  _214
REMARK   91  A    between atoms: _217  and  _219
REMARK   92  A    between atoms: _219  and  _220
REMARK   93  A    between atoms: _219  and  _222
REMARK   94  A    between atoms: _222  and  _223
REMARK   95  A    between atoms: _223  and  _224
REMARK   96  A    between atoms: _224  and  _225
REMARK   97  A    between atoms: _225  and  _226
REMARK   98  A    between atoms: _230  and  _232
REMARK   99  A    between atoms: _232  and  _233
REMARK  100  A    between atoms: _232  and  _235
REMARK  101  A    between atoms: _235  and  _236
REMARK  102  A    between atoms: _241  and  _242
REMARK  103  A    between atoms: _244  and  _246
REMARK  104  A    between atoms: _246  and  _247
REMARK  105  A    between atoms: _246  and  _249
REMARK  106  A    between atoms: _249  and  _250
REMARK  107  A    between atoms: _253  and  _255
REMARK  108  A    between atoms: _255  and  _256
REMARK  109  A    between atoms: _255  and  _258
REMARK  110  A    between atoms: _258  and  _259
REMARK  111  A    between atoms: _259  and  _260
REMARK  112  A    between atoms: _263  and  _265
REMARK  113  A    between atoms: _265  and  _266
REMARK  114  A    between atoms: _265  and  _268
REMARK  115  A    between atoms: _268  and  _269
REMARK  116  A    between atoms: _275  and  _276
REMARK  117  A    between atoms: _281  and  _283
REMARK  118  A    between atoms: _283  and  _284
REMARK  119  A    between atoms: _283  and  _286
REMARK  120  A    between atoms: _286  and  _287
REMARK  121  A    between atoms: _287  and  _288
REMARK  122  A    between atoms: _288  and  _289
REMARK  123  A    between atoms: _298  and  _300
REMARK  124  A    between atoms: _300  and  _301
REMARK  125  A    between atoms: _300  and  _303
REMARK  126  A    between atoms: _303  and  _304
REMARK  127  A    between atoms: _309  and  _311
REMARK  128  A    between atoms: _311  and  _312
REMARK  129  A    between atoms: _311  and  _314
REMARK  130  A    between atoms: _317  and  _319
REMARK  131  A    between atoms: _319  and  _320
REMARK  132  A    between atoms: _319  and  _322
REMARK  133  A    between atoms: _322  and  _323
REMARK  134  A    between atoms: _323  and  _324
REMARK  135  A    between atoms: _327  and  _329
REMARK  136  A    between atoms: _329  and  _330
REMARK  137  A    between atoms: _329  and  _332
REMARK  138  A    between atoms: _334  and  _336
REMARK  139  A    between atoms: _336  and  _337
REMARK  140  A    between atoms: _336  and  _339
REMARK  141  A    between atoms: _339  and  _340
REMARK  142  A    between atoms: _342  and  _344
REMARK  143  A    between atoms: _344  and  _345
REMARK  144  A    between atoms: _344  and  _347
REMARK  145  A    between atoms: _347  and  _348
REMARK  146  A    between atoms: _348  and  _349
REMARK  147  A    between atoms: _351  and  _353
REMARK  148  A    between atoms: _353  and  _354
REMARK  149  A    between atoms: _353  and  _356
REMARK  150  A    between atoms: _356  and  _357
REMARK  151  A    between atoms: _357  and  _358
REMARK  152  A    between atoms: _363  and  _365
REMARK  153  A    between atoms: _365  and  _366
REMARK  154  A    between atoms: _365  and  _368
REMARK  155  A    between atoms: _368  and  _369
REMARK  156  A    between atoms: _369  and  _370
REMARK  157  A    between atoms: _370  and  _371
REMARK  158  A    between atoms: _380  and  _382
REMARK  159  A    between atoms: _382  and  _383
REMARK  160  A    between atoms: _382  and  _385
REMARK  161  A    between atoms: _385  and  _386
REMARK  162  A    between atoms: _386  and  _387
REMARK  163  A    between atoms: _387  and  _388
REMARK  164  A    between atoms: _397  and  _399
REMARK  165  A    between atoms: _399  and  _400
REMARK  166  A    between atoms: _399  and  _402
REMARK  167  A    between atoms: _402  and  _403
REMARK  168  A    between atoms: _408  and  _410
REMARK  169  A    between atoms: _410  and  _411
REMARK  170  A    between atoms: _410  and  _413
REMARK  171  A    between atoms: _413  and  _414
REMARK  172  A    between atoms: _414  and  _415
REMARK  173  A    between atoms: _420  and  _422
REMARK  174  A    between atoms: _422  and  _423
REMARK  175  A    between atoms: _422  and  _425
REMARK  176  A    between atoms: _425  and  _426
REMARK  177  A    between atoms: _426  and  _427
REMARK  178  A    between atoms: _427  and  _428
REMARK  179  A    between atoms: _428  and  _429
REMARK  180  A    between atoms: _433  and  _435
REMARK  181  A    between atoms: _435  and  _436
REMARK  182  A    between atoms: _435  and  _438
REMARK  183  A    between atoms: _438  and  _439
REMARK  184  A    between atoms: _439  and  _440
REMARK  185  A    between atoms: _443  and  _445
REMARK  186  A    between atoms: _445  and  _446
REMARK  187  A    between atoms: _445  and  _448
REMARK  188  A    between atoms: _448  and  _449
REMARK  189  A    between atoms: _455  and  _457
REMARK  190  A    between atoms: _457  and  _458
REMARK  191  A    between atoms: _457  and  _460
REMARK  192  A    between atoms: _460  and  _461
REMARK  193  A    between atoms: _464  and  _466
REMARK  194  A    between atoms: _466  and  _467
REMARK  195  A    between atoms: _466  and  _469
REMARK  196  A    between atoms: _469  and  _470
REMARK  197  A    between atoms: _470  and  _471
REMARK  198  A    between atoms: _474  and  _476
REMARK  199  A    between atoms: _476  and  _477
REMARK  200  A    between atoms: _476  and  _479
REMARK  201  A    between atoms: _479  and  _480
REMARK  202  A    between atoms: _485  and  _486
REMARK  203  A    between atoms: _488  and  _490
REMARK  204  A    between atoms: _490  and  _491
REMARK  205  A    between atoms: _490  and  _493
REMARK  206  A    between atoms: _493  and  _494
REMARK  207  A    between atoms: _500  and  _502
REMARK  208  A    between atoms: _502  and  _503
REMARK  209  A    between atoms: _502  and  _505
REMARK  210  A    between atoms: _505  and  _506
REMARK  211  A    between atoms: _509  and  _511
REMARK  212  A    between atoms: _511  and  _512
REMARK  213  A    between atoms: _511  and  _514
REMARK  214  A    between atoms: _514  and  _515
REMARK  215  A    between atoms: _515  and  _516
REMARK  216  A    between atoms: _516  and  _518
REMARK  217  A    between atoms: _518  and  MG_609
REMARK  218  A    between atoms: _519  and  _521
REMARK  219  A    between atoms: _521  and  _522
REMARK  220  A    between atoms: _521  and  _524
REMARK  221  A    between atoms: _524  and  _525
REMARK  222  A    between atoms: _525  and  _526
REMARK  223  A    between atoms: _528  and  _530
REMARK  224  A    between atoms: _530  and  _531
REMARK  225  A    between atoms: _530  and  _533
REMARK  226  A    between atoms: _533  and  _534
REMARK  227  A    between atoms: _539  and  _541
REMARK  228  A    between atoms: _541  and  _542
REMARK  229  A    between atoms: _541  and  _544
REMARK  230  A    between atoms: _544  and  _545
REMARK  231  A    between atoms: _545  and  _546
REMARK  232  A    between atoms: _546  and  _547
REMARK  233  A    between atoms: _556  and  _558
REMARK  234  A    between atoms: _558  and  _559
REMARK  235  A    between atoms: _558  and  _561
REMARK  236  A    between atoms: _561  and  _562
REMARK  237  A    between atoms: _562  and  _563
REMARK  238  A    between atoms: _568  and  _570
REMARK  239  A    between atoms: _570  and  _571
REMARK  240  A    between atoms: _570  and  _573
REMARK  241  A    between atoms: _573  and  _574
REMARK  242  A    between atoms: _579  and  _581
REMARK  243  A    between atoms: _581  and  _582
REMARK  244  A    between atoms: _581  and  _584
REMARK  245  A    between atoms: _584  and  _585
REMARK  246  A    between atoms: _588  and  _590
REMARK  247  A    between atoms: _590  and  _591
REMARK  248  A    between atoms: _590  and  _593
REMARK  249  A    between atoms: _593  and  _594
REMARK  250  A    between atoms: _599  and  _601
REMARK  251  A    between atoms: _601  and  _602
REMARK  252  A    between atoms: _601  and  _604
REMARK  253  A    between atoms: _604  and  _605
REMARK  254  A    between atoms: _605  and  _606
REMARK                            x       y       z     vdW  Elec       q    Type
REMARK                         _______ _______ _______ _____ _____    ______ ____
ROOT
ATOM      1  O   HOH     1     -38.031 -13.503   4.634  0.00  0.00    +0.000 OA
ENDROOT
TORSDOF 0
REMARK  Name = ../refined-set-2016/3rv4/3rv4_pocket.pdb
REMARK  254 active torsions:
REMARK  status: ('A' for Active; 'I' for Inactive)
REMARK    1  A    between atoms: _1  and  _3
REMARK    2  A    between atoms: _3  and  _4
REMARK    3  A    between atoms: _3  and  _6
REMARK    4  A    between atoms: _6  and  _7
REMARK    5  A    between atoms: _7  and  _8
REMARK    6  A    between atoms: _11  and  _13
REMARK    7  A    between atoms: _13  and  _14
REMARK    8  A    between atoms: _13  and  _16
REMARK    9  A    between atoms: _16  and  _17
REMARK   10  A    between atoms: _17  and  _18
REMARK   11  A    between atoms: _18  and  _19
REMARK   12  A    between atoms: _19  and  _20
REMARK   13  A    between atoms: _24  and  _26
REMARK   14  A    between atoms: _26  and  _27
REMARK   15  A    between atoms: _26  and  _29
REMARK   16  A    between atoms: _29  and  _30
REMARK   17  A    between atoms: _33  and  _35
REMARK   18  A    between atoms: _35  and  _36
REMARK   19  A    between atoms: _35  and  _38
REMARK   20  A    between atoms: _42  and  _43
REMARK   21  A    between atoms: _49  and  _50
REMARK   22  A    between atoms: _55  and  _57
REMARK   23  A    between atoms: _57  and  _58
REMARK   24  A    between atoms: _57  and  _60
REMARK   25  A    between atoms: _63  and  _65
REMARK   26  A    between atoms: _65  and  _66
REMARK   27  A    between atoms: _65  and  _68
REMARK   28  A    between atoms: _68  and  _69
REMARK   29  A    between atoms: _72  and  _74
REMARK   30  A    between atoms: _74  and  _75
REMARK   31  A    between atoms: _74  and  _77
REMARK   32  A    between atoms: _77  and  _78
REMARK   33  A    between atoms: _81  and  _83
REMARK   34  A    between atoms: _83  and  _84
REMARK   35  A    between atoms: _83  and  _86
REMARK   36  A    between atoms: _86  and  _87
REMARK   37  A    between atoms: _87  and  _88
REMARK   38  A    between atoms: _88  and  _89
REMARK   39  A    between atoms: _89  and  _90
REMARK   40  A    between atoms: _94  and  _96
REMARK   41  A    between atoms: _96  and  _97
REMARK   42  A    between atoms: _100  and  _102
REMARK   43  A    between atoms: _102  and  _103
REMARK   44  A    between atoms: _102  and  _105
REMARK   45  A    between atoms: _105  and  _106
REMARK   46  A    between atoms: _108  and  _110
REMARK   47  A    between atoms: _110  and  _111
REMARK   48  A    between atoms: _113  and  _115
REMARK   49  A    between atoms: _115  and  _116
REMARK   50  A    between atoms: _118  and  _120
REMARK   51  A    between atoms: _120  and  _121
REMARK   52  A    between atoms: _123  and  _125
REMARK   53  A    between atoms: _125  and  _126
REMARK   54  A    between atoms: _128  and  _130
REMARK   55  A    between atoms: _130  and  _131
REMARK   56  A    between atoms: _133  and  _135
REMARK   57  A    between atoms: _135  and  _136
REMARK   58  A    between atoms: _135  and  _138
REMARK   59  A    between atoms: _138  and  _139
REMARK   60  A    between atoms: _139  and  _140
REMARK   61  A    between atoms: _140  and  _141
REMARK   62  A    between atoms: _150  and  _152
REMARK   63  A    between atoms: _152  and  _153
REMARK   64  A    between atoms: _155  and  _157
REMARK   65  A    between atoms: _157  and  _158
REMARK   66  A    between atoms: _157  and  _160
REMARK   67  A    between atoms: _160  and  _161
REMARK   68  A    between atoms: _161  and  _162
REMARK   69  A    between atoms: _164  and  _166
REMARK   70  A    between atoms: _166  and  _167
REMARK   71  A    between atoms: _166  and  _169
REMARK   72  A    between atoms: _172  and  _174
REMARK   73  A    between atoms: _174  and  _175
REMARK   74  A    between atoms: _174  and  _177
REMARK   75  A    between atoms: _177  and  _178
REMARK   76  A    between atoms: _184  and  _186
REMARK   77  A    between atoms: _186  and  _187
REMARK   78  A    between atoms: _186  and  _189
REMARK   79  A    between atoms: _189  and  _190
REMARK   80  A    between atoms: _195  and  _196
REMARK   81  A    between atoms: _198  and  _200
REMARK   82  A    between atoms: _200  and  _201
REMARK   83  A    between atoms: _200  and  _203
REMARK   84  A    between atoms: _203  and  _204
REMARK   85  A    between atoms: _204  and  _205
REMARK   86  A    between atoms: _207  and  _209
REMARK   87  A    between atoms: _209  and  _210
REMARK   88  A    between atoms: _209  and  _212
REMARK   89  A    between atoms: _212  and  _213
REMARK   90  A    between atoms: _213  and  _214
REMARK   91  A    between atoms: _217  and  _219
REMARK   92  A    between atoms: _219  and  _220
REMARK   93  A    between atoms: _219  and  _222
REMARK   94  A    between atoms: _222  and  _223
REMARK   95  A    between atoms: _223  and  _224
REMARK   96  A    between atoms: _224  and  _225
REMARK   97  A    between atoms: _225  and  _226
REMARK   98  A    between atoms: _230  and  _232
REMARK   99  A    between atoms: _232  and  _233
REMARK  100  A    between atoms: _232  and  _235
REMARK  101  A    between atoms: _235  and  _236
REMARK  102  A    between atoms: _241  and  _242
REMARK  103  A    between atoms: _244  and  _246
REMARK  104  A    between atoms: _246  and  _247
REMARK  105  A    between atoms: _246  and  _249
REMARK  106  A    between atoms: _249  and  _250
REMARK  107  A    between atoms: _253  and  _255
REMARK  108  A    between atoms: _255  and  _256
REMARK  109  A    between atoms: _255  and  _258
REMARK  110  A    between atoms: _258  and  _259
REMARK  111  A    between atoms: _259  and  _260
REMARK  112  A    between atoms: _263  and  _265
REMARK  113  A    between atoms: _265  and  _266
REMARK  114  A    between atoms: _265  and  _268
REMARK  115  A    between atoms: _268  and  _269
REMARK  116  A    between atoms: _275  and  _276
REMARK  117  A    between atoms: _281  and  _283
REMARK  118  A    between atoms: _283  and  _284
REMARK  119  A    between atoms: _283  and  _286
REMARK  120  A    between atoms: _286  and  _287
REMARK  121  A    between atoms: _287  and  _288
REMARK  122  A    between atoms: _288  and  _289
REMARK  123  A    between atoms: _298  and  _300
REMARK  124  A    between atoms: _300  and  _301
REMARK  125  A    between atoms: _300  and  _303
REMARK  126  A    between atoms: _303  and  _304
REMARK  127  A    between atoms: _309  and  _311
REMARK  128  A    between atoms: _311  and  _312
REMARK  129  A    between atoms: _311  and  _314
REMARK  130  A    between atoms: _317  and  _319
REMARK  131  A    between atoms: _319  and  _320
REMARK  132  A    between atoms: _319  and  _322
REMARK  133  A    between atoms: _322  and  _323
REMARK  134  A    between atoms: _323  and  _324
REMARK  135  A    between atoms: _327  and  _329
REMARK  136  A    between atoms: _329  and  _330
REMARK  137  A    between atoms: _329  and  _332
REMARK  138  A    between atoms: _334  and  _336
REMARK  139  A    between atoms: _336  and  _337
REMARK  140  A    between atoms: _336  and  _339
REMARK  141  A    between atoms: _339  and  _340
REMARK  142  A    between atoms: _342  and  _344
REMARK  143  A    between atoms: _344  and  _345
REMARK  144  A    between atoms: _344  and  _347
REMARK  145  A    between atoms: _347  and  _348
REMARK  146  A    between atoms: _348  and  _349
REMARK  147  A    between atoms: _351  and  _353
REMARK  148  A    between atoms: _353  and  _354
REMARK  149  A    between atoms: _353  and  _356
REMARK  150  A    between atoms: _356  and  _357
REMARK  151  A    between atoms: _357  and  _358
REMARK  152  A    between atoms: _363  and  _365
REMARK  153  A    between atoms: _365  and  _366
REMARK  154  A    between atoms: _365  and  _368
REMARK  155  A    between atoms: _368  and  _369
REMARK  156  A    between atoms: _369  and  _370
REMARK  157  A    between atoms: _370  and  _371
REMARK  158  A    between atoms: _380  and  _382
REMARK  159  A    between atoms: _382  and  _383
REMARK  160  A    between atoms: _382  and  _385
REMARK  161  A    between atoms: _385  and  _386
REMARK  162  A    between atoms: _386  and  _387
REMARK  163  A    between atoms: _387  and  _388
REMARK  164  A    between atoms: _397  and  _399
REMARK  165  A    between atoms: _399  and  _400
REMARK  166  A    between atoms: _399  and  _402
REMARK  167  A    between atoms: _402  and  _403
REMARK  168  A    between atoms: _408  and  _410
REMARK  169  A    between atoms: _410  and  _411
REMARK  170  A    between atoms: _410  and  _413
REMARK  171  A    between atoms: _413  and  _414
REMARK  172  A    between atoms: _414  and  _415
REMARK  173  A    between atoms: _420  and  _422
REMARK  174  A    between atoms: _422  and  _423
REMARK  175  A    between atoms: _422  and  _425
REMARK  176  A    between atoms: _425  and  _426
REMARK  177  A    between atoms: _426  and  _427
REMARK  178  A    between atoms: _427  and  _428
REMARK  179  A    between atoms: _428  and  _429
REMARK  180  A    between atoms: _433  and  _435
REMARK  181  A    between atoms: _435  and  _436
REMARK  182  A    between atoms: _435  and  _438
REMARK  183  A    between atoms: _438  and  _439
REMARK  184  A    between atoms: _439  and  _440
REMARK  185  A    between atoms: _443  and  _445
REMARK  186  A    between atoms: _445  and  _446
REMARK  187  A    between atoms: _445  and  _448
REMARK  188  A    between atoms: _448  and  _449
REMARK  189  A    between atoms: _455  and  _457
REMARK  190  A    between atoms: _457  and  _458
REMARK  191  A    between atoms: _457  and  _460
REMARK  192  A    between atoms: _460  and  _461
REMARK  193  A    between atoms: _464  and  _466
REMARK  194  A    between atoms: _466  and  _467
REMARK  195  A    between atoms: _466  and  _469
REMARK  196  A    between atoms: _469  and  _470
REMARK  197  A    between atoms: _470  and  _471
REMARK  198  A    between atoms: _474  and  _476
REMARK  199  A    between atoms: _476  and  _477
REMARK  200  A    between atoms: _476  and  _479
REMARK  201  A    between atoms: _479  and  _480
REMARK  202  A    between atoms: _485  and  _486
REMARK  203  A    between atoms: _488  and  _490
REMARK  204  A    between atoms: _490  and  _491
REMARK  205  A    between atoms: _490  and  _493
REMARK  206  A    between atoms: _493  and  _494
REMARK  207  A    between atoms: _500  and  _502
REMARK  208  A    between atoms: _502  and  _503
REMARK  209  A    between atoms: _502  and  _505
REMARK  210  A    between atoms: _505  and  _506
REMARK  211  A    between atoms: _509  and  _511
REMARK  212  A    between atoms: _511  and  _512
REMARK  213  A    between atoms: _511  and  _514
REMARK  214  A    between atoms: _514  and  _515
REMARK  215  A    between atoms: _515  and  _516
REMARK  216  A    between atoms: _516  and  _518
REMARK  217  A    between atoms: _518  and  MG_609
REMARK  218  A    between atoms: _519  and  _521
REMARK  219  A    between atoms: _521  and  _522
REMARK  220  A    between atoms: _521  and  _524
REMARK  221  A    between atoms: _524  and  _525
REMARK  222  A    between atoms: _525  and  _526
REMARK  223  A    between atoms: _528  and  _530
REMARK  224  A    between atoms: _530  and  _531
REMARK  225  A    between atoms: _530  and  _533
REMARK  226  A    between atoms: _533  and  _534
REMARK  227  A    between atoms: _539  and  _541
REMARK  228  A    between atoms: _541  and  _542
REMARK  229  A    between atoms: _541  and  _544
REMARK  230  A    between atoms: _544  and  _545
REMARK  231  A    between atoms: _545  and  _546
REMARK  232  A    between atoms: _546  and  _547
REMARK  233  A    between atoms: _556  and  _558
REMARK  234  A    between atoms: _558  and  _559
REMARK  235  A    between atoms: _558  and  _561
REMARK  236  A    between atoms: _561  and  _562
REMARK  237  A    between atoms: _562  and  _563
REMARK  238  A    between atoms: _568  and  _570
REMARK  239  A    between atoms: _570  and  _571
REMARK  240  A    between atoms: _570  and  _573
REMARK  241  A    between atoms: _573  and  _574
REMARK  242  A    between atoms: _579  and  _581
REMARK  243  A    between atoms: _581  and  _582
REMARK  244  A    between atoms: _581  and  _584
REMARK  245  A    between atoms: _584  and  _585
REMARK  246  A    between atoms: _588  and  _590
REMARK  247  A    between atoms: _590  and  _591
REMARK  248  A    between atoms: _590  and  _593
REMARK  249  A    between atoms: _593  and  _594
REMARK  250  A    between atoms: _599  and  _601
REMARK  251  A    between atoms: _601  and  _602
REMARK  252  A    between atoms: _601  and  _604
REMARK  253  A    between atoms: _604  and  _605
REMARK  254  A    between atoms: _605  and  _606
REMARK                            x       y       z     vdW  Elec       q    Type
REMARK                         _______ _______ _______ _____ _____    ______ ____
ROOT
ATOM      1  O   HOH     1     -21.945 -19.253  22.388  0.00  0.00    +0.000 OA
ENDROOT
TORSDOF 0
REMARK  Name = ../refined-set-2016/3rv4/3rv4_pocket.pdb
REMARK  254 active torsions:
REMARK  status: ('A' for Active; 'I' for Inactive)
REMARK    1  A    between atoms: _1  and  _3
REMARK    2  A    between atoms: _3  and  _4
REMARK    3  A    between atoms: _3  and  _6
REMARK    4  A    between atoms: _6  and  _7
REMARK    5  A    between atoms: _7  and  _8
REMARK    6  A    between atoms: _11  and  _13
REMARK    7  A    between atoms: _13  and  _14
REMARK    8  A    between atoms: _13  and  _16
REMARK    9  A    between atoms: _16  and  _17
REMARK   10  A    between atoms: _17  and  _18
REMARK   11  A    between atoms: _18  and  _19
REMARK   12  A    between atoms: _19  and  _20
REMARK   13  A    between atoms: _24  and  _26
REMARK   14  A    between atoms: _26  and  _27
REMARK   15  A    between atoms: _26  and  _29
REMARK   16  A    between atoms: _29  and  _30
REMARK   17  A    between atoms: _33  and  _35
REMARK   18  A    between atoms: _35  and  _36
REMARK   19  A    between atoms: _35  and  _38
REMARK   20  A    between atoms: _42  and  _43
REMARK   21  A    between atoms: _49  and  _50
REMARK   22  A    between atoms: _55  and  _57
REMARK   23  A    between atoms: _57  and  _58
REMARK   24  A    between atoms: _57  and  _60
REMARK   25  A    between atoms: _63  and  _65
REMARK   26  A    between atoms: _65  and  _66
REMARK   27  A    between atoms: _65  and  _68
REMARK   28  A    between atoms: _68  and  _69
REMARK   29  A    between atoms: _72  and  _74
REMARK   30  A    between atoms: _74  and  _75
REMARK   31  A    between atoms: _74  and  _77
REMARK   32  A    between atoms: _77  and  _78
REMARK   33  A    between atoms: _81  and  _83
REMARK   34  A    between atoms: _83  and  _84
REMARK   35  A    between atoms: _83  and  _86
REMARK   36  A    between atoms: _86  and  _87
REMARK   37  A    between atoms: _87  and  _88
REMARK   38  A    between atoms: _88  and  _89
REMARK   39  A    between atoms: _89  and  _90
REMARK   40  A    between atoms: _94  and  _96
REMARK   41  A    between atoms: _96  and  _97
REMARK   42  A    between atoms: _100  and  _102
REMARK   43  A    between atoms: _102  and  _103
REMARK   44  A    between atoms: _102  and  _105
REMARK   45  A    between atoms: _105  and  _106
REMARK   46  A    between atoms: _108  and  _110
REMARK   47  A    between atoms: _110  and  _111
REMARK   48  A    between atoms: _113  and  _115
REMARK   49  A    between atoms: _115  and  _116
REMARK   50  A    between atoms: _118  and  _120
REMARK   51  A    between atoms: _120  and  _121
REMARK   52  A    between atoms: _123  and  _125
REMARK   53  A    between atoms: _125  and  _126
REMARK   54  A    between atoms: _128  and  _130
REMARK   55  A    between atoms: _130  and  _131
REMARK   56  A    between atoms: _133  and  _135
REMARK   57  A    between atoms: _135  and  _136
REMARK   58  A    between atoms: _135  and  _138
REMARK   59  A    between atoms: _138  and  _139
REMARK   60  A    between atoms: _139  and  _140
REMARK   61  A    between atoms: _140  and  _141
REMARK   62  A    between atoms: _150  and  _152
REMARK   63  A    between atoms: _152  and  _153
REMARK   64  A    between atoms: _155  and  _157
REMARK   65  A    between atoms: _157  and  _158
REMARK   66  A    between atoms: _157  and  _160
REMARK   67  A    between atoms: _160  and  _161
REMARK   68  A    between atoms: _161  and  _162
REMARK   69  A    between atoms: _164  and  _166
REMARK   70  A    between atoms: _166  and  _167
REMARK   71  A    between atoms: _166  and  _169
REMARK   72  A    between atoms: _172  and  _174
REMARK   73  A    between atoms: _174  and  _175
REMARK   74  A    between atoms: _174  and  _177
REMARK   75  A    between atoms: _177  and  _178
REMARK   76  A    between atoms: _184  and  _186
REMARK   77  A    between atoms: _186  and  _187
REMARK   78  A    between atoms: _186  and  _189
REMARK   79  A    between atoms: _189  and  _190
REMARK   80  A    between atoms: _195  and  _196
REMARK   81  A    between atoms: _198  and  _200
REMARK   82  A    between atoms: _200  and  _201
REMARK   83  A    between atoms: _200  and  _203
REMARK   84  A    between atoms: _203  and  _204
REMARK   85  A    between atoms: _204  and  _205
REMARK   86  A    between atoms: _207  and  _209
REMARK   87  A    between atoms: _209  and  _210
REMARK   88  A    between atoms: _209  and  _212
REMARK   89  A    between atoms: _212  and  _213
REMARK   90  A    between atoms: _213  and  _214
REMARK   91  A    between atoms: _217  and  _219
REMARK   92  A    between atoms: _219  and  _220
REMARK   93  A    between atoms: _219  and  _222
REMARK   94  A    between atoms: _222  and  _223
REMARK   95  A    between atoms: _223  and  _224
REMARK   96  A    between atoms: _224  and  _225
REMARK   97  A    between atoms: _225  and  _226
REMARK   98  A    between atoms: _230  and  _232
REMARK   99  A    between atoms: _232  and  _233
REMARK  100  A    between atoms: _232  and  _235
REMARK  101  A    between atoms: _235  and  _236
REMARK  102  A    between atoms: _241  and  _242
REMARK  103  A    between atoms: _244  and  _246
REMARK  104  A    between atoms: _246  and  _247
REMARK  105  A    between atoms: _246  and  _249
REMARK  106  A    between atoms: _249  and  _250
REMARK  107  A    between atoms: _253  and  _255
REMARK  108  A    between atoms: _255  and  _256
REMARK  109  A    between atoms: _255  and  _258
REMARK  110  A    between atoms: _258  and  _259
REMARK  111  A    between atoms: _259  and  _260
REMARK  112  A    between atoms: _263  and  _265
REMARK  113  A    between atoms: _265  and  _266
REMARK  114  A    between atoms: _265  and  _268
REMARK  115  A    between atoms: _268  and  _269
REMARK  116  A    between atoms: _275  and  _276
REMARK  117  A    between atoms: _281  and  _283
REMARK  118  A    between atoms: _283  and  _284
REMARK  119  A    between atoms: _283  and  _286
REMARK  120  A    between atoms: _286  and  _287
REMARK  121  A    between atoms: _287  and  _288
REMARK  122  A    between atoms: _288  and  _289
REMARK  123  A    between atoms: _298  and  _300
REMARK  124  A    between atoms: _300  and  _301
REMARK  125  A    between atoms: _300  and  _303
REMARK  126  A    between atoms: _303  and  _304
REMARK  127  A    between atoms: _309  and  _311
REMARK  128  A    between atoms: _311  and  _312
REMARK  129  A    between atoms: _311  and  _314
REMARK  130  A    between atoms: _317  and  _319
REMARK  131  A    between atoms: _319  and  _320
REMARK  132  A    between atoms: _319  and  _322
REMARK  133  A    between atoms: _322  and  _323
REMARK  134  A    between atoms: _323  and  _324
REMARK  135  A    between atoms: _327  and  _329
REMARK  136  A    between atoms: _329  and  _330
REMARK  137  A    between atoms: _329  and  _332
REMARK  138  A    between atoms: _334  and  _336
REMARK  139  A    between atoms: _336  and  _337
REMARK  140  A    between atoms: _336  and  _339
REMARK  141  A    between atoms: _339  and  _340
REMARK  142  A    between atoms: _342  and  _344
REMARK  143  A    between atoms: _344  and  _345
REMARK  144  A    between atoms: _344  and  _347
REMARK  145  A    between atoms: _347  and  _348
REMARK  146  A    between atoms: _348  and  _349
REMARK  147  A    between atoms: _351  and  _353
REMARK  148  A    between atoms: _353  and  _354
REMARK  149  A    between atoms: _353  and  _356
REMARK  150  A    between atoms: _356  and  _357
REMARK  151  A    between atoms: _357  and  _358
REMARK  152  A    between atoms: _363  and  _365
REMARK  153  A    between atoms: _365  and  _366
REMARK  154  A    between atoms: _365  and  _368
REMARK  155  A    between atoms: _368  and  _369
REMARK  156  A    between atoms: _369  and  _370
REMARK  157  A    between atoms: _370  and  _371
REMARK  158  A    between atoms: _380  and  _382
REMARK  159  A    between atoms: _382  and  _383
REMARK  160  A    between atoms: _382  and  _385
REMARK  161  A    between atoms: _385  and  _386
REMARK  162  A    between atoms: _386  and  _387
REMARK  163  A    between atoms: _387  and  _388
REMARK  164  A    between atoms: _397  and  _399
REMARK  165  A    between atoms: _399  and  _400
REMARK  166  A    between atoms: _399  and  _402
REMARK  167  A    between atoms: _402  and  _403
REMARK  168  A    between atoms: _408  and  _410
REMARK  169  A    between atoms: _410  and  _411
REMARK  170  A    between atoms: _410  and  _413
REMARK  171  A    between atoms: _413  and  _414
REMARK  172  A    between atoms: _414  and  _415
REMARK  173  A    between atoms: _420  and  _422
REMARK  174  A    between atoms: _422  and  _423
REMARK  175  A    between atoms: _422  and  _425
REMARK  176  A    between atoms: _425  and  _426
REMARK  177  A    between atoms: _426  and  _427
REMARK  178  A    between atoms: _427  and  _428
REMARK  179  A    between atoms: _428  and  _429
REMARK  180  A    between atoms: _433  and  _435
REMARK  181  A    between atoms: _435  and  _436
REMARK  182  A    between atoms: _435  and  _438
REMARK  183  A    between atoms: _438  and  _439
REMARK  184  A    between atoms: _439  and  _440
REMARK  185  A    between atoms: _443  and  _445
REMARK  186  A    between atoms: _445  and  _446
REMARK  187  A    between atoms: _445  and  _448
REMARK  188  A    between atoms: _448  and  _449
REMARK  189  A    between atoms: _455  and  _457
REMARK  190  A    between atoms: _457  and  _458
REMARK  191  A    between atoms: _457  and  _460
REMARK  192  A    between atoms: _460  and  _461
REMARK  193  A    between atoms: _464  and  _466
REMARK  194  A    between atoms: _466  and  _467
REMARK  195  A    between atoms: _466  and  _469
REMARK  196  A    between atoms: _469  and  _470
REMARK  197  A    between atoms: _470  and  _471
REMARK  198  A    between atoms: _474  and  _476
REMARK  199  A    between atoms: _476  and  _477
REMARK  200  A    between atoms: _476  and  _479
REMARK  201  A    between atoms: _479  and  _480
REMARK  202  A    between atoms: _485  and  _486
REMARK  203  A    between atoms: _488  and  _490
REMARK  204  A    between atoms: _490  and  _491
REMARK  205  A    between atoms: _490  and  _493
REMARK  206  A    between atoms: _493  and  _494
REMARK  207  A    between atoms: _500  and  _502
REMARK  208  A    between atoms: _502  and  _503
REMARK  209  A    between atoms: _502  and  _505
REMARK  210  A    between atoms: _505  and  _506
REMARK  211  A    between atoms: _509  and  _511
REMARK  212  A    between atoms: _511  and  _512
REMARK  213  A    between atoms: _511  and  _514
REMARK  214  A    between atoms: _514  and  _515
REMARK  215  A    between atoms: _515  and  _516
REMARK  216  A    between atoms: _516  and  _518
REMARK  217  A    between atoms: _518  and  MG_609
REMARK  218  A    between atoms: _519  and  _521
REMARK  219  A    between atoms: _521  and  _522
REMARK  220  A    between atoms: _521  and  _524
REMARK  221  A    between atoms: _524  and  _525
REMARK  222  A    between atoms: _525  and  _526
REMARK  223  A    between atoms: _528  and  _530
REMARK  224  A    between atoms: _530  and  _531
REMARK  225  A    between atoms: _530  and  _533
REMARK  226  A    between atoms: _533  and  _534
REMARK  227  A    between atoms: _539  and  _541
REMARK  228  A    between atoms: _541  and  _542
REMARK  229  A    between atoms: _541  and  _544
REMARK  230  A    between atoms: _544  and  _545
REMARK  231  A    between atoms: _545  and  _546
REMARK  232  A    between atoms: _546  and  _547
REMARK  233  A    between atoms: _556  and  _558
REMARK  234  A    between atoms: _558  and  _559
REMARK  235  A    between atoms: _558  and  _561
REMARK  236  A    between atoms: _561  and  _562
REMARK  237  A    between atoms: _562  and  _563
REMARK  238  A    between atoms: _568  and  _570
REMARK  239  A    between atoms: _570  and  _571
REMARK  240  A    between atoms: _570  and  _573
REMARK  241  A    between atoms: _573  and  _574
REMARK  242  A    between atoms: _579  and  _581
REMARK  243  A    between atoms: _581  and  _582
REMARK  244  A    between atoms: _581  and  _584
REMARK  245  A    between atoms: _584  and  _585
REMARK  246  A    between atoms: _588  and  _590
REMARK  247  A    between atoms: _590  and  _591
REMARK  248  A    between atoms: _590  and  _593
REMARK  249  A    between atoms: _593  and  _594
REMARK  250  A    between atoms: _599  and  _601
REMARK  251  A    between atoms: _601  and  _602
REMARK  252  A    between atoms: _601  and  _604
REMARK  253  A    between atoms: _604  and  _605
REMARK  254  A    between atoms: _605  and  _606
REMARK                            x       y       z     vdW  Elec       q    Type
REMARK                         _______ _______ _______ _____ _____    ______ ____
ROOT
ATOM      1  O   HOH     1     -34.619  -8.323  20.896  0.00  0.00    +0.000 OA
ENDROOT
TORSDOF 0
REMARK  Name = ../refined-set-2016/3rv4/3rv4_pocket.pdb
REMARK  254 active torsions:
REMARK  status: ('A' for Active; 'I' for Inactive)
REMARK    1  A    between atoms: _1  and  _3
REMARK    2  A    between atoms: _3  and  _4
REMARK    3  A    between atoms: _3  and  _6
REMARK    4  A    between atoms: _6  and  _7
REMARK    5  A    between atoms: _7  and  _8
REMARK    6  A    between atoms: _11  and  _13
REMARK    7  A    between atoms: _13  and  _14
REMARK    8  A    between atoms: _13  and  _16
REMARK    9  A    between atoms: _16  and  _17
REMARK   10  A    between atoms: _17  and  _18
REMARK   11  A    between atoms: _18  and  _19
REMARK   12  A    between atoms: _19  and  _20
REMARK   13  A    between atoms: _24  and  _26
REMARK   14  A    between atoms: _26  and  _27
REMARK   15  A    between atoms: _26  and  _29
REMARK   16  A    between atoms: _29  and  _30
REMARK   17  A    between atoms: _33  and  _35
REMARK   18  A    between atoms: _35  and  _36
REMARK   19  A    between atoms: _35  and  _38
REMARK   20  A    between atoms: _42  and  _43
REMARK   21  A    between atoms: _49  and  _50
REMARK   22  A    between atoms: _55  and  _57
REMARK   23  A    between atoms: _57  and  _58
REMARK   24  A    between atoms: _57  and  _60
REMARK   25  A    between atoms: _63  and  _65
REMARK   26  A    between atoms: _65  and  _66
REMARK   27  A    between atoms: _65  and  _68
REMARK   28  A    between atoms: _68  and  _69
REMARK   29  A    between atoms: _72  and  _74
REMARK   30  A    between atoms: _74  and  _75
REMARK   31  A    between atoms: _74  and  _77
REMARK   32  A    between atoms: _77  and  _78
REMARK   33  A    between atoms: _81  and  _83
REMARK   34  A    between atoms: _83  and  _84
REMARK   35  A    between atoms: _83  and  _86
REMARK   36  A    between atoms: _86  and  _87
REMARK   37  A    between atoms: _87  and  _88
REMARK   38  A    between atoms: _88  and  _89
REMARK   39  A    between atoms: _89  and  _90
REMARK   40  A    between atoms: _94  and  _96
REMARK   41  A    between atoms: _96  and  _97
REMARK   42  A    between atoms: _100  and  _102
REMARK   43  A    between atoms: _102  and  _103
REMARK   44  A    between atoms: _102  and  _105
REMARK   45  A    between atoms: _105  and  _106
REMARK   46  A    between atoms: _108  and  _110
REMARK   47  A    between atoms: _110  and  _111
REMARK   48  A    between atoms: _113  and  _115
REMARK   49  A    between atoms: _115  and  _116
REMARK   50  A    between atoms: _118  and  _120
REMARK   51  A    between atoms: _120  and  _121
REMARK   52  A    between atoms: _123  and  _125
REMARK   53  A    between atoms: _125  and  _126
REMARK   54  A    between atoms: _128  and  _130
REMARK   55  A    between atoms: _130  and  _131
REMARK   56  A    between atoms: _133  and  _135
REMARK   57  A    between atoms: _135  and  _136
REMARK   58  A    between atoms: _135  and  _138
REMARK   59  A    between atoms: _138  and  _139
REMARK   60  A    between atoms: _139  and  _140
REMARK   61  A    between atoms: _140  and  _141
REMARK   62  A    between atoms: _150  and  _152
REMARK   63  A    between atoms: _152  and  _153
REMARK   64  A    between atoms: _155  and  _157
REMARK   65  A    between atoms: _157  and  _158
REMARK   66  A    between atoms: _157  and  _160
REMARK   67  A    between atoms: _160  and  _161
REMARK   68  A    between atoms: _161  and  _162
REMARK   69  A    between atoms: _164  and  _166
REMARK   70  A    between atoms: _166  and  _167
REMARK   71  A    between atoms: _166  and  _169
REMARK   72  A    between atoms: _172  and  _174
REMARK   73  A    between atoms: _174  and  _175
REMARK   74  A    between atoms: _174  and  _177
REMARK   75  A    between atoms: _177  and  _178
REMARK   76  A    between atoms: _184  and  _186
REMARK   77  A    between atoms: _186  and  _187
REMARK   78  A    between atoms: _186  and  _189
REMARK   79  A    between atoms: _189  and  _190
REMARK   80  A    between atoms: _195  and  _196
REMARK   81  A    between atoms: _198  and  _200
REMARK   82  A    between atoms: _200  and  _201
REMARK   83  A    between atoms: _200  and  _203
REMARK   84  A    between atoms: _203  and  _204
REMARK   85  A    between atoms: _204  and  _205
REMARK   86  A    between atoms: _207  and  _209
REMARK   87  A    between atoms: _209  and  _210
REMARK   88  A    between atoms: _209  and  _212
REMARK   89  A    between atoms: _212  and  _213
REMARK   90  A    between atoms: _213  and  _214
REMARK   91  A    between atoms: _217  and  _219
REMARK   92  A    between atoms: _219  and  _220
REMARK   93  A    between atoms: _219  and  _222
REMARK   94  A    between atoms: _222  and  _223
REMARK   95  A    between atoms: _223  and  _224
REMARK   96  A    between atoms: _224  and  _225
REMARK   97  A    between atoms: _225  and  _226
REMARK   98  A    between atoms: _230  and  _232
REMARK   99  A    between atoms: _232  and  _233
REMARK  100  A    between atoms: _232  and  _235
REMARK  101  A    between atoms: _235  and  _236
REMARK  102  A    between atoms: _241  and  _242
REMARK  103  A    between atoms: _244  and  _246
REMARK  104  A    between atoms: _246  and  _247
REMARK  105  A    between atoms: _246  and  _249
REMARK  106  A    between atoms: _249  and  _250
REMARK  107  A    between atoms: _253  and  _255
REMARK  108  A    between atoms: _255  and  _256
REMARK  109  A    between atoms: _255  and  _258
REMARK  110  A    between atoms: _258  and  _259
REMARK  111  A    between atoms: _259  and  _260
REMARK  112  A    between atoms: _263  and  _265
REMARK  113  A    between atoms: _265  and  _266
REMARK  114  A    between atoms: _265  and  _268
REMARK  115  A    between atoms: _268  and  _269
REMARK  116  A    between atoms: _275  and  _276
REMARK  117  A    between atoms: _281  and  _283
REMARK  118  A    between atoms: _283  and  _284
REMARK  119  A    between atoms: _283  and  _286
REMARK  120  A    between atoms: _286  and  _287
REMARK  121  A    between atoms: _287  and  _288
REMARK  122  A    between atoms: _288  and  _289
REMARK  123  A    between atoms: _298  and  _300
REMARK  124  A    between atoms: _300  and  _301
REMARK  125  A    between atoms: _300  and  _303
REMARK  126  A    between atoms: _303  and  _304
REMARK  127  A    between atoms: _309  and  _311
REMARK  128  A    between atoms: _311  and  _312
REMARK  129  A    between atoms: _311  and  _314
REMARK  130  A    between atoms: _317  and  _319
REMARK  131  A    between atoms: _319  and  _320
REMARK  132  A    between atoms: _319  and  _322
REMARK  133  A    between atoms: _322  and  _323
REMARK  134  A    between atoms: _323  and  _324
REMARK  135  A    between atoms: _327  and  _329
REMARK  136  A    between atoms: _329  and  _330
REMARK  137  A    between atoms: _329  and  _332
REMARK  138  A    between atoms: _334  and  _336
REMARK  139  A    between atoms: _336  and  _337
REMARK  140  A    between atoms: _336  and  _339
REMARK  141  A    between atoms: _339  and  _340
REMARK  142  A    between atoms: _342  and  _344
REMARK  143  A    between atoms: _344  and  _345
REMARK  144  A    between atoms: _344  and  _347
REMARK  145  A    between atoms: _347  and  _348
REMARK  146  A    between atoms: _348  and  _349
REMARK  147  A    between atoms: _351  and  _353
REMARK  148  A    between atoms: _353  and  _354
REMARK  149  A    between atoms: _353  and  _356
REMARK  150  A    between atoms: _356  and  _357
REMARK  151  A    between atoms: _357  and  _358
REMARK  152  A    between atoms: _363  and  _365
REMARK  153  A    between atoms: _365  and  _366
REMARK  154  A    between atoms: _365  and  _368
REMARK  155  A    between atoms: _368  and  _369
REMARK  156  A    between atoms: _369  and  _370
REMARK  157  A    between atoms: _370  and  _371
REMARK  158  A    between atoms: _380  and  _382
REMARK  159  A    between atoms: _382  and  _383
REMARK  160  A    between atoms: _382  and  _385
REMARK  161  A    between atoms: _385  and  _386
REMARK  162  A    between atoms: _386  and  _387
REMARK  163  A    between atoms: _387  and  _388
REMARK  164  A    between atoms: _397  and  _399
REMARK  165  A    between atoms: _399  and  _400
REMARK  166  A    between atoms: _399  and  _402
REMARK  167  A    between atoms: _402  and  _403
REMARK  168  A    between atoms: _408  and  _410
REMARK  169  A    between atoms: _410  and  _411
REMARK  170  A    between atoms: _410  and  _413
REMARK  171  A    between atoms: _413  and  _414
REMARK  172  A    between atoms: _414  and  _415
REMARK  173  A    between atoms: _420  and  _422
REMARK  174  A    between atoms: _422  and  _423
REMARK  175  A    between atoms: _422  and  _425
REMARK  176  A    between atoms: _425  and  _426
REMARK  177  A    between atoms: _426  and  _427
REMARK  178  A    between atoms: _427  and  _428
REMARK  179  A    between atoms: _428  and  _429
REMARK  180  A    between atoms: _433  and  _435
REMARK  181  A    between atoms: _435  and  _436
REMARK  182  A    between atoms: _435  and  _438
REMARK  183  A    between atoms: _438  and  _439
REMARK  184  A    between atoms: _439  and  _440
REMARK  185  A    between atoms: _443  and  _445
REMARK  186  A    between atoms: _445  and  _446
REMARK  187  A    between atoms: _445  and  _448
REMARK  188  A    between atoms: _448  and  _449
REMARK  189  A    between atoms: _455  and  _457
REMARK  190  A    between atoms: _457  and  _458
REMARK  191  A    between atoms: _457  and  _460
REMARK  192  A    between atoms: _460  and  _461
REMARK  193  A    between atoms: _464  and  _466
REMARK  194  A    between atoms: _466  and  _467
REMARK  195  A    between atoms: _466  and  _469
REMARK  196  A    between atoms: _469  and  _470
REMARK  197  A    between atoms: _470  and  _471
REMARK  198  A    between atoms: _474  and  _476
REMARK  199  A    between atoms: _476  and  _477
REMARK  200  A    between atoms: _476  and  _479
REMARK  201  A    between atoms: _479  and  _480
REMARK  202  A    between atoms: _485  and  _486
REMARK  203  A    between atoms: _488  and  _490
REMARK  204  A    between atoms: _490  and  _491
REMARK  205  A    between atoms: _490  and  _493
REMARK  206  A    between atoms: _493  and  _494
REMARK  207  A    between atoms: _500  and  _502
REMARK  208  A    between atoms: _502  and  _503
REMARK  209  A    between atoms: _502  and  _505
REMARK  210  A    between atoms: _505  and  _506
REMARK  211  A    between atoms: _509  and  _511
REMARK  212  A    between atoms: _511  and  _512
REMARK  213  A    between atoms: _511  and  _514
REMARK  214  A    between atoms: _514  and  _515
REMARK  215  A    between atoms: _515  and  _516
REMARK  216  A    between atoms: _516  and  _518
REMARK  217  A    between atoms: _518  and  MG_609
REMARK  218  A    between atoms: _519  and  _521
REMARK  219  A    between atoms: _521  and  _522
REMARK  220  A    between atoms: _521  and  _524
REMARK  221  A    between atoms: _524  and  _525
REMARK  222  A    between atoms: _525  and  _526
REMARK  223  A    between atoms: _528  and  _530
REMARK  224  A    between atoms: _530  and  _531
REMARK  225  A    between atoms: _530  and  _533
REMARK  226  A    between atoms: _533  and  _534
REMARK  227  A    between atoms: _539  and  _541
REMARK  228  A    between atoms: _541  and  _542
REMARK  229  A    between atoms: _541  and  _544
REMARK  230  A    between atoms: _544  and  _545
REMARK  231  A    between atoms: _545  and  _546
REMARK  232  A    between atoms: _546  and  _547
REMARK  233  A    between atoms: _556  and  _558
REMARK  234  A    between atoms: _558  and  _559
REMARK  235  A    between atoms: _558  and  _561
REMARK  236  A    between atoms: _561  and  _562
REMARK  237  A    between atoms: _562  and  _563
REMARK  238  A    between atoms: _568  and  _570
REMARK  239  A    between atoms: _570  and  _571
REMARK  240  A    between atoms: _570  and  _573
REMARK  241  A    between atoms: _573  and  _574
REMARK  242  A    between atoms: _579  and  _581
REMARK  243  A    between atoms: _581  and  _582
REMARK  244  A    between atoms: _581  and  _584
REMARK  245  A    between atoms: _584  and  _585
REMARK  246  A    between atoms: _588  and  _590
REMARK  247  A    between atoms: _590  and  _591
REMARK  248  A    between atoms: _590  and  _593
REMARK  249  A    between atoms: _593  and  _594
REMARK  250  A    between atoms: _599  and  _601
REMARK  251  A    between atoms: _601  and  _602
REMARK  252  A    between atoms: _601  and  _604
REMARK  253  A    between atoms: _604  and  _605
REMARK  254  A    between atoms: _605  and  _606
REMARK                            x       y       z     vdW  Elec       q    Type
REMARK                         _______ _______ _______ _____ _____    ______ ____
ROOT
ATOM      1  O   HOH     1     -23.892 -21.914  22.173  0.00  0.00    +0.000 OA
ENDROOT
TORSDOF 0
REMARK  Name = ../refined-set-2016/3rv4/3rv4_pocket.pdb
REMARK  254 active torsions:
REMARK  status: ('A' for Active; 'I' for Inactive)
REMARK    1  A    between atoms: _1  and  _3
REMARK    2  A    between atoms: _3  and  _4
REMARK    3  A    between atoms: _3  and  _6
REMARK    4  A    between atoms: _6  and  _7
REMARK    5  A    between atoms: _7  and  _8
REMARK    6  A    between atoms: _11  and  _13
REMARK    7  A    between atoms: _13  and  _14
REMARK    8  A    between atoms: _13  and  _16
REMARK    9  A    between atoms: _16  and  _17
REMARK   10  A    between atoms: _17  and  _18
REMARK   11  A    between atoms: _18  and  _19
REMARK   12  A    between atoms: _19  and  _20
REMARK   13  A    between atoms: _24  and  _26
REMARK   14  A    between atoms: _26  and  _27
REMARK   15  A    between atoms: _26  and  _29
REMARK   16  A    between atoms: _29  and  _30
REMARK   17  A    between atoms: _33  and  _35
REMARK   18  A    between atoms: _35  and  _36
REMARK   19  A    between atoms: _35  and  _38
REMARK   20  A    between atoms: _42  and  _43
REMARK   21  A    between atoms: _49  and  _50
REMARK   22  A    between atoms: _55  and  _57
REMARK   23  A    between atoms: _57  and  _58
REMARK   24  A    between atoms: _57  and  _60
REMARK   25  A    between atoms: _63  and  _65
REMARK   26  A    between atoms: _65  and  _66
REMARK   27  A    between atoms: _65  and  _68
REMARK   28  A    between atoms: _68  and  _69
REMARK   29  A    between atoms: _72  and  _74
REMARK   30  A    between atoms: _74  and  _75
REMARK   31  A    between atoms: _74  and  _77
REMARK   32  A    between atoms: _77  and  _78
REMARK   33  A    between atoms: _81  and  _83
REMARK   34  A    between atoms: _83  and  _84
REMARK   35  A    between atoms: _83  and  _86
REMARK   36  A    between atoms: _86  and  _87
REMARK   37  A    between atoms: _87  and  _88
REMARK   38  A    between atoms: _88  and  _89
REMARK   39  A    between atoms: _89  and  _90
REMARK   40  A    between atoms: _94  and  _96
REMARK   41  A    between atoms: _96  and  _97
REMARK   42  A    between atoms: _100  and  _102
REMARK   43  A    between atoms: _102  and  _103
REMARK   44  A    between atoms: _102  and  _105
REMARK   45  A    between atoms: _105  and  _106
REMARK   46  A    between atoms: _108  and  _110
REMARK   47  A    between atoms: _110  and  _111
REMARK   48  A    between atoms: _113  and  _115
REMARK   49  A    between atoms: _115  and  _116
REMARK   50  A    between atoms: _118  and  _120
REMARK   51  A    between atoms: _120  and  _121
REMARK   52  A    between atoms: _123  and  _125
REMARK   53  A    between atoms: _125  and  _126
REMARK   54  A    between atoms: _128  and  _130
REMARK   55  A    between atoms: _130  and  _131
REMARK   56  A    between atoms: _133  and  _135
REMARK   57  A    between atoms: _135  and  _136
REMARK   58  A    between atoms: _135  and  _138
REMARK   59  A    between atoms: _138  and  _139
REMARK   60  A    between atoms: _139  and  _140
REMARK   61  A    between atoms: _140  and  _141
REMARK   62  A    between atoms: _150  and  _152
REMARK   63  A    between atoms: _152  and  _153
REMARK   64  A    between atoms: _155  and  _157
REMARK   65  A    between atoms: _157  and  _158
REMARK   66  A    between atoms: _157  and  _160
REMARK   67  A    between atoms: _160  and  _161
REMARK   68  A    between atoms: _161  and  _162
REMARK   69  A    between atoms: _164  and  _166
REMARK   70  A    between atoms: _166  and  _167
REMARK   71  A    between atoms: _166  and  _169
REMARK   72  A    between atoms: _172  and  _174
REMARK   73  A    between atoms: _174  and  _175
REMARK   74  A    between atoms: _174  and  _177
REMARK   75  A    between atoms: _177  and  _178
REMARK   76  A    between atoms: _184  and  _186
REMARK   77  A    between atoms: _186  and  _187
REMARK   78  A    between atoms: _186  and  _189
REMARK   79  A    between atoms: _189  and  _190
REMARK   80  A    between atoms: _195  and  _196
REMARK   81  A    between atoms: _198  and  _200
REMARK   82  A    between atoms: _200  and  _201
REMARK   83  A    between atoms: _200  and  _203
REMARK   84  A    between atoms: _203  and  _204
REMARK   85  A    between atoms: _204  and  _205
REMARK   86  A    between atoms: _207  and  _209
REMARK   87  A    between atoms: _209  and  _210
REMARK   88  A    between atoms: _209  and  _212
REMARK   89  A    between atoms: _212  and  _213
REMARK   90  A    between atoms: _213  and  _214
REMARK   91  A    between atoms: _217  and  _219
REMARK   92  A    between atoms: _219  and  _220
REMARK   93  A    between atoms: _219  and  _222
REMARK   94  A    between atoms: _222  and  _223
REMARK   95  A    between atoms: _223  and  _224
REMARK   96  A    between atoms: _224  and  _225
REMARK   97  A    between atoms: _225  and  _226
REMARK   98  A    between atoms: _230  and  _232
REMARK   99  A    between atoms: _232  and  _233
REMARK  100  A    between atoms: _232  and  _235
REMARK  101  A    between atoms: _235  and  _236
REMARK  102  A    between atoms: _241  and  _242
REMARK  103  A    between atoms: _244  and  _246
REMARK  104  A    between atoms: _246  and  _247
REMARK  105  A    between atoms: _246  and  _249
REMARK  106  A    between atoms: _249  and  _250
REMARK  107  A    between atoms: _253  and  _255
REMARK  108  A    between atoms: _255  and  _256
REMARK  109  A    between atoms: _255  and  _258
REMARK  110  A    between atoms: _258  and  _259
REMARK  111  A    between atoms: _259  and  _260
REMARK  112  A    between atoms: _263  and  _265
REMARK  113  A    between atoms: _265  and  _266
REMARK  114  A    between atoms: _265  and  _268
REMARK  115  A    between atoms: _268  and  _269
REMARK  116  A    between atoms: _275  and  _276
REMARK  117  A    between atoms: _281  and  _283
REMARK  118  A    between atoms: _283  and  _284
REMARK  119  A    between atoms: _283  and  _286
REMARK  120  A    between atoms: _286  and  _287
REMARK  121  A    between atoms: _287  and  _288
REMARK  122  A    between atoms: _288  and  _289
REMARK  123  A    between atoms: _298  and  _300
REMARK  124  A    between atoms: _300  and  _301
REMARK  125  A    between atoms: _300  and  _303
REMARK  126  A    between atoms: _303  and  _304
REMARK  127  A    between atoms: _309  and  _311
REMARK  128  A    between atoms: _311  and  _312
REMARK  129  A    between atoms: _311  and  _314
REMARK  130  A    between atoms: _317  and  _319
REMARK  131  A    between atoms: _319  and  _320
REMARK  132  A    between atoms: _319  and  _322
REMARK  133  A    between atoms: _322  and  _323
REMARK  134  A    between atoms: _323  and  _324
REMARK  135  A    between atoms: _327  and  _329
REMARK  136  A    between atoms: _329  and  _330
REMARK  137  A    between atoms: _329  and  _332
REMARK  138  A    between atoms: _334  and  _336
REMARK  139  A    between atoms: _336  and  _337
REMARK  140  A    between atoms: _336  and  _339
REMARK  141  A    between atoms: _339  and  _340
REMARK  142  A    between atoms: _342  and  _344
REMARK  143  A    between atoms: _344  and  _345
REMARK  144  A    between atoms: _344  and  _347
REMARK  145  A    between atoms: _347  and  _348
REMARK  146  A    between atoms: _348  and  _349
REMARK  147  A    between atoms: _351  and  _353
REMARK  148  A    between atoms: _353  and  _354
REMARK  149  A    between atoms: _353  and  _356
REMARK  150  A    between atoms: _356  and  _357
REMARK  151  A    between atoms: _357  and  _358
REMARK  152  A    between atoms: _363  and  _365
REMARK  153  A    between atoms: _365  and  _366
REMARK  154  A    between atoms: _365  and  _368
REMARK  155  A    between atoms: _368  and  _369
REMARK  156  A    between atoms: _369  and  _370
REMARK  157  A    between atoms: _370  and  _371
REMARK  158  A    between atoms: _380  and  _382
REMARK  159  A    between atoms: _382  and  _383
REMARK  160  A    between atoms: _382  and  _385
REMARK  161  A    between atoms: _385  and  _386
REMARK  162  A    between atoms: _386  and  _387
REMARK  163  A    between atoms: _387  and  _388
REMARK  164  A    between atoms: _397  and  _399
REMARK  165  A    between atoms: _399  and  _400
REMARK  166  A    between atoms: _399  and  _402
REMARK  167  A    between atoms: _402  and  _403
REMARK  168  A    between atoms: _408  and  _410
REMARK  169  A    between atoms: _410  and  _411
REMARK  170  A    between atoms: _410  and  _413
REMARK  171  A    between atoms: _413  and  _414
REMARK  172  A    between atoms: _414  and  _415
REMARK  173  A    between atoms: _420  and  _422
REMARK  174  A    between atoms: _422  and  _423
REMARK  175  A    between atoms: _422  and  _425
REMARK  176  A    between atoms: _425  and  _426
REMARK  177  A    between atoms: _426  and  _427
REMARK  178  A    between atoms: _427  and  _428
REMARK  179  A    between atoms: _428  and  _429
REMARK  180  A    between atoms: _433  and  _435
REMARK  181  A    between atoms: _435  and  _436
REMARK  182  A    between atoms: _435  and  _438
REMARK  183  A    between atoms: _438  and  _439
REMARK  184  A    between atoms: _439  and  _440
REMARK  185  A    between atoms: _443  and  _445
REMARK  186  A    between atoms: _445  and  _446
REMARK  187  A    between atoms: _445  and  _448
REMARK  188  A    between atoms: _448  and  _449
REMARK  189  A    between atoms: _455  and  _457
REMARK  190  A    between atoms: _457  and  _458
REMARK  191  A    between atoms: _457  and  _460
REMARK  192  A    between atoms: _460  and  _461
REMARK  193  A    between atoms: _464  and  _466
REMARK  194  A    between atoms: _466  and  _467
REMARK  195  A    between atoms: _466  and  _469
REMARK  196  A    between atoms: _469  and  _470
REMARK  197  A    between atoms: _470  and  _471
REMARK  198  A    between atoms: _474  and  _476
REMARK  199  A    between atoms: _476  and  _477
REMARK  200  A    between atoms: _476  and  _479
REMARK  201  A    between atoms: _479  and  _480
REMARK  202  A    between atoms: _485  and  _486
REMARK  203  A    between atoms: _488  and  _490
REMARK  204  A    between atoms: _490  and  _491
REMARK  205  A    between atoms: _490  and  _493
REMARK  206  A    between atoms: _493  and  _494
REMARK  207  A    between atoms: _500  and  _502
REMARK  208  A    between atoms: _502  and  _503
REMARK  209  A    between atoms: _502  and  _505
REMARK  210  A    between atoms: _505  and  _506
REMARK  211  A    between atoms: _509  and  _511
REMARK  212  A    between atoms: _511  and  _512
REMARK  213  A    between atoms: _511  and  _514
REMARK  214  A    between atoms: _514  and  _515
REMARK  215  A    between atoms: _515  and  _516
REMARK  216  A    between atoms: _516  and  _518
REMARK  217  A    between atoms: _518  and  MG_609
REMARK  218  A    between atoms: _519  and  _521
REMARK  219  A    between atoms: _521  and  _522
REMARK  220  A    between atoms: _521  and  _524
REMARK  221  A    between atoms: _524  and  _525
REMARK  222  A    between atoms: _525  and  _526
REMARK  223  A    between atoms: _528  and  _530
REMARK  224  A    between atoms: _530  and  _531
REMARK  225  A    between atoms: _530  and  _533
REMARK  226  A    between atoms: _533  and  _534
REMARK  227  A    between atoms: _539  and  _541
REMARK  228  A    between atoms: _541  and  _542
REMARK  229  A    between atoms: _541  and  _544
REMARK  230  A    between atoms: _544  and  _545
REMARK  231  A    between atoms: _545  and  _546
REMARK  232  A    between atoms: _546  and  _547
REMARK  233  A    between atoms: _556  and  _558
REMARK  234  A    between atoms: _558  and  _559
REMARK  235  A    between atoms: _558  and  _561
REMARK  236  A    between atoms: _561  and  _562
REMARK  237  A    between atoms: _562  and  _563
REMARK  238  A    between atoms: _568  and  _570
REMARK  239  A    between atoms: _570  and  _571
REMARK  240  A    between atoms: _570  and  _573
REMARK  241  A    between atoms: _573  and  _574
REMARK  242  A    between atoms: _579  and  _581
REMARK  243  A    between atoms: _581  and  _582
REMARK  244  A    between atoms: _581  and  _584
REMARK  245  A    between atoms: _584  and  _585
REMARK  246  A    between atoms: _588  and  _590
REMARK  247  A    between atoms: _590  and  _591
REMARK  248  A    between atoms: _590  and  _593
REMARK  249  A    between atoms: _593  and  _594
REMARK  250  A    between atoms: _599  and  _601
REMARK  251  A    between atoms: _601  and  _602
REMARK  252  A    between atoms: _601  and  _604
REMARK  253  A    between atoms: _604  and  _605
REMARK  254  A    between atoms: _605  and  _606
REMARK                            x       y       z     vdW  Elec       q    Type
REMARK                         _______ _______ _______ _____ _____    ______ ____
ROOT
ATOM      1  O   HOH     1     -24.335 -15.459  11.261  0.00  0.00    +0.000 OA
ENDROOT
TORSDOF 0
REMARK  Name = ../refined-set-2016/3rv4/3rv4_pocket.pdb
REMARK  254 active torsions:
REMARK  status: ('A' for Active; 'I' for Inactive)
REMARK    1  A    between atoms: _1  and  _3
REMARK    2  A    between atoms: _3  and  _4
REMARK    3  A    between atoms: _3  and  _6
REMARK    4  A    between atoms: _6  and  _7
REMARK    5  A    between atoms: _7  and  _8
REMARK    6  A    between atoms: _11  and  _13
REMARK    7  A    between atoms: _13  and  _14
REMARK    8  A    between atoms: _13  and  _16
REMARK    9  A    between atoms: _16  and  _17
REMARK   10  A    between atoms: _17  and  _18
REMARK   11  A    between atoms: _18  and  _19
REMARK   12  A    between atoms: _19  and  _20
REMARK   13  A    between atoms: _24  and  _26
REMARK   14  A    between atoms: _26  and  _27
REMARK   15  A    between atoms: _26  and  _29
REMARK   16  A    between atoms: _29  and  _30
REMARK   17  A    between atoms: _33  and  _35
REMARK   18  A    between atoms: _35  and  _36
REMARK   19  A    between atoms: _35  and  _38
REMARK   20  A    between atoms: _42  and  _43
REMARK   21  A    between atoms: _49  and  _50
REMARK   22  A    between atoms: _55  and  _57
REMARK   23  A    between atoms: _57  and  _58
REMARK   24  A    between atoms: _57  and  _60
REMARK   25  A    between atoms: _63  and  _65
REMARK   26  A    between atoms: _65  and  _66
REMARK   27  A    between atoms: _65  and  _68
REMARK   28  A    between atoms: _68  and  _69
REMARK   29  A    between atoms: _72  and  _74
REMARK   30  A    between atoms: _74  and  _75
REMARK   31  A    between atoms: _74  and  _77
REMARK   32  A    between atoms: _77  and  _78
REMARK   33  A    between atoms: _81  and  _83
REMARK   34  A    between atoms: _83  and  _84
REMARK   35  A    between atoms: _83  and  _86
REMARK   36  A    between atoms: _86  and  _87
REMARK   37  A    between atoms: _87  and  _88
REMARK   38  A    between atoms: _88  and  _89
REMARK   39  A    between atoms: _89  and  _90
REMARK   40  A    between atoms: _94  and  _96
REMARK   41  A    between atoms: _96  and  _97
REMARK   42  A    between atoms: _100  and  _102
REMARK   43  A    between atoms: _102  and  _103
REMARK   44  A    between atoms: _102  and  _105
REMARK   45  A    between atoms: _105  and  _106
REMARK   46  A    between atoms: _108  and  _110
REMARK   47  A    between atoms: _110  and  _111
REMARK   48  A    between atoms: _113  and  _115
REMARK   49  A    between atoms: _115  and  _116
REMARK   50  A    between atoms: _118  and  _120
REMARK   51  A    between atoms: _120  and  _121
REMARK   52  A    between atoms: _123  and  _125
REMARK   53  A    between atoms: _125  and  _126
REMARK   54  A    between atoms: _128  and  _130
REMARK   55  A    between atoms: _130  and  _131
REMARK   56  A    between atoms: _133  and  _135
REMARK   57  A    between atoms: _135  and  _136
REMARK   58  A    between atoms: _135  and  _138
REMARK   59  A    between atoms: _138  and  _139
REMARK   60  A    between atoms: _139  and  _140
REMARK   61  A    between atoms: _140  and  _141
REMARK   62  A    between atoms: _150  and  _152
REMARK   63  A    between atoms: _152  and  _153
REMARK   64  A    between atoms: _155  and  _157
REMARK   65  A    between atoms: _157  and  _158
REMARK   66  A    between atoms: _157  and  _160
REMARK   67  A    between atoms: _160  and  _161
REMARK   68  A    between atoms: _161  and  _162
REMARK   69  A    between atoms: _164  and  _166
REMARK   70  A    between atoms: _166  and  _167
REMARK   71  A    between atoms: _166  and  _169
REMARK   72  A    between atoms: _172  and  _174
REMARK   73  A    between atoms: _174  and  _175
REMARK   74  A    between atoms: _174  and  _177
REMARK   75  A    between atoms: _177  and  _178
REMARK   76  A    between atoms: _184  and  _186
REMARK   77  A    between atoms: _186  and  _187
REMARK   78  A    between atoms: _186  and  _189
REMARK   79  A    between atoms: _189  and  _190
REMARK   80  A    between atoms: _195  and  _196
REMARK   81  A    between atoms: _198  and  _200
REMARK   82  A    between atoms: _200  and  _201
REMARK   83  A    between atoms: _200  and  _203
REMARK   84  A    between atoms: _203  and  _204
REMARK   85  A    between atoms: _204  and  _205
REMARK   86  A    between atoms: _207  and  _209
REMARK   87  A    between atoms: _209  and  _210
REMARK   88  A    between atoms: _209  and  _212
REMARK   89  A    between atoms: _212  and  _213
REMARK   90  A    between atoms: _213  and  _214
REMARK   91  A    between atoms: _217  and  _219
REMARK   92  A    between atoms: _219  and  _220
REMARK   93  A    between atoms: _219  and  _222
REMARK   94  A    between atoms: _222  and  _223
REMARK   95  A    between atoms: _223  and  _224
REMARK   96  A    between atoms: _224  and  _225
REMARK   97  A    between atoms: _225  and  _226
REMARK   98  A    between atoms: _230  and  _232
REMARK   99  A    between atoms: _232  and  _233
REMARK  100  A    between atoms: _232  and  _235
REMARK  101  A    between atoms: _235  and  _236
REMARK  102  A    between atoms: _241  and  _242
REMARK  103  A    between atoms: _244  and  _246
REMARK  104  A    between atoms: _246  and  _247
REMARK  105  A    between atoms: _246  and  _249
REMARK  106  A    between atoms: _249  and  _250
REMARK  107  A    between atoms: _253  and  _255
REMARK  108  A    between atoms: _255  and  _256
REMARK  109  A    between atoms: _255  and  _258
REMARK  110  A    between atoms: _258  and  _259
REMARK  111  A    between atoms: _259  and  _260
REMARK  112  A    between atoms: _263  and  _265
REMARK  113  A    between atoms: _265  and  _266
REMARK  114  A    between atoms: _265  and  _268
REMARK  115  A    between atoms: _268  and  _269
REMARK  116  A    between atoms: _275  and  _276
REMARK  117  A    between atoms: _281  and  _283
REMARK  118  A    between atoms: _283  and  _284
REMARK  119  A    between atoms: _283  and  _286
REMARK  120  A    between atoms: _286  and  _287
REMARK  121  A    between atoms: _287  and  _288
REMARK  122  A    between atoms: _288  and  _289
REMARK  123  A    between atoms: _298  and  _300
REMARK  124  A    between atoms: _300  and  _301
REMARK  125  A    between atoms: _300  and  _303
REMARK  126  A    between atoms: _303  and  _304
REMARK  127  A    between atoms: _309  and  _311
REMARK  128  A    between atoms: _311  and  _312
REMARK  129  A    between atoms: _311  and  _314
REMARK  130  A    between atoms: _317  and  _319
REMARK  131  A    between atoms: _319  and  _320
REMARK  132  A    between atoms: _319  and  _322
REMARK  133  A    between atoms: _322  and  _323
REMARK  134  A    between atoms: _323  and  _324
REMARK  135  A    between atoms: _327  and  _329
REMARK  136  A    between atoms: _329  and  _330
REMARK  137  A    between atoms: _329  and  _332
REMARK  138  A    between atoms: _334  and  _336
REMARK  139  A    between atoms: _336  and  _337
REMARK  140  A    between atoms: _336  and  _339
REMARK  141  A    between atoms: _339  and  _340
REMARK  142  A    between atoms: _342  and  _344
REMARK  143  A    between atoms: _344  and  _345
REMARK  144  A    between atoms: _344  and  _347
REMARK  145  A    between atoms: _347  and  _348
REMARK  146  A    between atoms: _348  and  _349
REMARK  147  A    between atoms: _351  and  _353
REMARK  148  A    between atoms: _353  and  _354
REMARK  149  A    between atoms: _353  and  _356
REMARK  150  A    between atoms: _356  and  _357
REMARK  151  A    between atoms: _357  and  _358
REMARK  152  A    between atoms: _363  and  _365
REMARK  153  A    between atoms: _365  and  _366
REMARK  154  A    between atoms: _365  and  _368
REMARK  155  A    between atoms: _368  and  _369
REMARK  156  A    between atoms: _369  and  _370
REMARK  157  A    between atoms: _370  and  _371
REMARK  158  A    between atoms: _380  and  _382
REMARK  159  A    between atoms: _382  and  _383
REMARK  160  A    between atoms: _382  and  _385
REMARK  161  A    between atoms: _385  and  _386
REMARK  162  A    between atoms: _386  and  _387
REMARK  163  A    between atoms: _387  and  _388
REMARK  164  A    between atoms: _397  and  _399
REMARK  165  A    between atoms: _399  and  _400
REMARK  166  A    between atoms: _399  and  _402
REMARK  167  A    between atoms: _402  and  _403
REMARK  168  A    between atoms: _408  and  _410
REMARK  169  A    between atoms: _410  and  _411
REMARK  170  A    between atoms: _410  and  _413
REMARK  171  A    between atoms: _413  and  _414
REMARK  172  A    between atoms: _414  and  _415
REMARK  173  A    between atoms: _420  and  _422
REMARK  174  A    between atoms: _422  and  _423
REMARK  175  A    between atoms: _422  and  _425
REMARK  176  A    between atoms: _425  and  _426
REMARK  177  A    between atoms: _426  and  _427
REMARK  178  A    between atoms: _427  and  _428
REMARK  179  A    between atoms: _428  and  _429
REMARK  180  A    between atoms: _433  and  _435
REMARK  181  A    between atoms: _435  and  _436
REMARK  182  A    between atoms: _435  and  _438
REMARK  183  A    between atoms: _438  and  _439
REMARK  184  A    between atoms: _439  and  _440
REMARK  185  A    between atoms: _443  and  _445
REMARK  186  A    between atoms: _445  and  _446
REMARK  187  A    between atoms: _445  and  _448
REMARK  188  A    between atoms: _448  and  _449
REMARK  189  A    between atoms: _455  and  _457
REMARK  190  A    between atoms: _457  and  _458
REMARK  191  A    between atoms: _457  and  _460
REMARK  192  A    between atoms: _460  and  _461
REMARK  193  A    between atoms: _464  and  _466
REMARK  194  A    between atoms: _466  and  _467
REMARK  195  A    between atoms: _466  and  _469
REMARK  196  A    between atoms: _469  and  _470
REMARK  197  A    between atoms: _470  and  _471
REMARK  198  A    between atoms: _474  and  _476
REMARK  199  A    between atoms: _476  and  _477
REMARK  200  A    between atoms: _476  and  _479
REMARK  201  A    between atoms: _479  and  _480
REMARK  202  A    between atoms: _485  and  _486
REMARK  203  A    between atoms: _488  and  _490
REMARK  204  A    between atoms: _490  and  _491
REMARK  205  A    between atoms: _490  and  _493
REMARK  206  A    between atoms: _493  and  _494
REMARK  207  A    between atoms: _500  and  _502
REMARK  208  A    between atoms: _502  and  _503
REMARK  209  A    between atoms: _502  and  _505
REMARK  210  A    between atoms: _505  and  _506
REMARK  211  A    between atoms: _509  and  _511
REMARK  212  A    between atoms: _511  and  _512
REMARK  213  A    between atoms: _511  and  _514
REMARK  214  A    between atoms: _514  and  _515
REMARK  215  A    between atoms: _515  and  _516
REMARK  216  A    between atoms: _516  and  _518
REMARK  217  A    between atoms: _518  and  MG_609
REMARK  218  A    between atoms: _519  and  _521
REMARK  219  A    between atoms: _521  and  _522
REMARK  220  A    between atoms: _521  and  _524
REMARK  221  A    between atoms: _524  and  _525
REMARK  222  A    between atoms: _525  and  _526
REMARK  223  A    between atoms: _528  and  _530
REMARK  224  A    between atoms: _530  and  _531
REMARK  225  A    between atoms: _530  and  _533
REMARK  226  A    between atoms: _533  and  _534
REMARK  227  A    between atoms: _539  and  _541
REMARK  228  A    between atoms: _541  and  _542
REMARK  229  A    between atoms: _541  and  _544
REMARK  230  A    between atoms: _544  and  _545
REMARK  231  A    between atoms: _545  and  _546
REMARK  232  A    between atoms: _546  and  _547
REMARK  233  A    between atoms: _556  and  _558
REMARK  234  A    between atoms: _558  and  _559
REMARK  235  A    between atoms: _558  and  _561
REMARK  236  A    between atoms: _561  and  _562
REMARK  237  A    between atoms: _562  and  _563
REMARK  238  A    between atoms: _568  and  _570
REMARK  239  A    between atoms: _570  and  _571
REMARK  240  A    between atoms: _570  and  _573
REMARK  241  A    between atoms: _573  and  _574
REMARK  242  A    between atoms: _579  and  _581
REMARK  243  A    between atoms: _581  and  _582
REMARK  244  A    between atoms: _581  and  _584
REMARK  245  A    between atoms: _584  and  _585
REMARK  246  A    between atoms: _588  and  _590
REMARK  247  A    between atoms: _590  and  _591
REMARK  248  A    between atoms: _590  and  _593
REMARK  249  A    between atoms: _593  and  _594
REMARK  250  A    between atoms: _599  and  _601
REMARK  251  A    between atoms: _601  and  _602
REMARK  252  A    between atoms: _601  and  _604
REMARK  253  A    between atoms: _604  and  _605
REMARK  254  A    between atoms: _605  and  _606
REMARK                            x       y       z     vdW  Elec       q    Type
REMARK                         _______ _______ _______ _____ _____    ______ ____
ROOT
ATOM      1  O   HOH     1     -21.401 -18.212  11.059  0.00  0.00    +0.000 OA
ENDROOT
TORSDOF 0
REMARK  Name = ../refined-set-2016/3rv4/3rv4_pocket.pdb
REMARK  254 active torsions:
REMARK  status: ('A' for Active; 'I' for Inactive)
REMARK    1  A    between atoms: _1  and  _3
REMARK    2  A    between atoms: _3  and  _4
REMARK    3  A    between atoms: _3  and  _6
REMARK    4  A    between atoms: _6  and  _7
REMARK    5  A    between atoms: _7  and  _8
REMARK    6  A    between atoms: _11  and  _13
REMARK    7  A    between atoms: _13  and  _14
REMARK    8  A    between atoms: _13  and  _16
REMARK    9  A    between atoms: _16  and  _17
REMARK   10  A    between atoms: _17  and  _18
REMARK   11  A    between atoms: _18  and  _19
REMARK   12  A    between atoms: _19  and  _20
REMARK   13  A    between atoms: _24  and  _26
REMARK   14  A    between atoms: _26  and  _27
REMARK   15  A    between atoms: _26  and  _29
REMARK   16  A    between atoms: _29  and  _30
REMARK   17  A    between atoms: _33  and  _35
REMARK   18  A    between atoms: _35  and  _36
REMARK   19  A    between atoms: _35  and  _38
REMARK   20  A    between atoms: _42  and  _43
REMARK   21  A    between atoms: _49  and  _50
REMARK   22  A    between atoms: _55  and  _57
REMARK   23  A    between atoms: _57  and  _58
REMARK   24  A    between atoms: _57  and  _60
REMARK   25  A    between atoms: _63  and  _65
REMARK   26  A    between atoms: _65  and  _66
REMARK   27  A    between atoms: _65  and  _68
REMARK   28  A    between atoms: _68  and  _69
REMARK   29  A    between atoms: _72  and  _74
REMARK   30  A    between atoms: _74  and  _75
REMARK   31  A    between atoms: _74  and  _77
REMARK   32  A    between atoms: _77  and  _78
REMARK   33  A    between atoms: _81  and  _83
REMARK   34  A    between atoms: _83  and  _84
REMARK   35  A    between atoms: _83  and  _86
REMARK   36  A    between atoms: _86  and  _87
REMARK   37  A    between atoms: _87  and  _88
REMARK   38  A    between atoms: _88  and  _89
REMARK   39  A    between atoms: _89  and  _90
REMARK   40  A    between atoms: _94  and  _96
REMARK   41  A    between atoms: _96  and  _97
REMARK   42  A    between atoms: _100  and  _102
REMARK   43  A    between atoms: _102  and  _103
REMARK   44  A    between atoms: _102  and  _105
REMARK   45  A    between atoms: _105  and  _106
REMARK   46  A    between atoms: _108  and  _110
REMARK   47  A    between atoms: _110  and  _111
REMARK   48  A    between atoms: _113  and  _115
REMARK   49  A    between atoms: _115  and  _116
REMARK   50  A    between atoms: _118  and  _120
REMARK   51  A    between atoms: _120  and  _121
REMARK   52  A    between atoms: _123  and  _125
REMARK   53  A    between atoms: _125  and  _126
REMARK   54  A    between atoms: _128  and  _130
REMARK   55  A    between atoms: _130  and  _131
REMARK   56  A    between atoms: _133  and  _135
REMARK   57  A    between atoms: _135  and  _136
REMARK   58  A    between atoms: _135  and  _138
REMARK   59  A    between atoms: _138  and  _139
REMARK   60  A    between atoms: _139  and  _140
REMARK   61  A    between atoms: _140  and  _141
REMARK   62  A    between atoms: _150  and  _152
REMARK   63  A    between atoms: _152  and  _153
REMARK   64  A    between atoms: _155  and  _157
REMARK   65  A    between atoms: _157  and  _158
REMARK   66  A    between atoms: _157  and  _160
REMARK   67  A    between atoms: _160  and  _161
REMARK   68  A    between atoms: _161  and  _162
REMARK   69  A    between atoms: _164  and  _166
REMARK   70  A    between atoms: _166  and  _167
REMARK   71  A    between atoms: _166  and  _169
REMARK   72  A    between atoms: _172  and  _174
REMARK   73  A    between atoms: _174  and  _175
REMARK   74  A    between atoms: _174  and  _177
REMARK   75  A    between atoms: _177  and  _178
REMARK   76  A    between atoms: _184  and  _186
REMARK   77  A    between atoms: _186  and  _187
REMARK   78  A    between atoms: _186  and  _189
REMARK   79  A    between atoms: _189  and  _190
REMARK   80  A    between atoms: _195  and  _196
REMARK   81  A    between atoms: _198  and  _200
REMARK   82  A    between atoms: _200  and  _201
REMARK   83  A    between atoms: _200  and  _203
REMARK   84  A    between atoms: _203  and  _204
REMARK   85  A    between atoms: _204  and  _205
REMARK   86  A    between atoms: _207  and  _209
REMARK   87  A    between atoms: _209  and  _210
REMARK   88  A    between atoms: _209  and  _212
REMARK   89  A    between atoms: _212  and  _213
REMARK   90  A    between atoms: _213  and  _214
REMARK   91  A    between atoms: _217  and  _219
REMARK   92  A    between atoms: _219  and  _220
REMARK   93  A    between atoms: _219  and  _222
REMARK   94  A    between atoms: _222  and  _223
REMARK   95  A    between atoms: _223  and  _224
REMARK   96  A    between atoms: _224  and  _225
REMARK   97  A    between atoms: _225  and  _226
REMARK   98  A    between atoms: _230  and  _232
REMARK   99  A    between atoms: _232  and  _233
REMARK  100  A    between atoms: _232  and  _235
REMARK  101  A    between atoms: _235  and  _236
REMARK  102  A    between atoms: _241  and  _242
REMARK  103  A    between atoms: _244  and  _246
REMARK  104  A    between atoms: _246  and  _247
REMARK  105  A    between atoms: _246  and  _249
REMARK  106  A    between atoms: _249  and  _250
REMARK  107  A    between atoms: _253  and  _255
REMARK  108  A    between atoms: _255  and  _256
REMARK  109  A    between atoms: _255  and  _258
REMARK  110  A    between atoms: _258  and  _259
REMARK  111  A    between atoms: _259  and  _260
REMARK  112  A    between atoms: _263  and  _265
REMARK  113  A    between atoms: _265  and  _266
REMARK  114  A    between atoms: _265  and  _268
REMARK  115  A    between atoms: _268  and  _269
REMARK  116  A    between atoms: _275  and  _276
REMARK  117  A    between atoms: _281  and  _283
REMARK  118  A    between atoms: _283  and  _284
REMARK  119  A    between atoms: _283  and  _286
REMARK  120  A    between atoms: _286  and  _287
REMARK  121  A    between atoms: _287  and  _288
REMARK  122  A    between atoms: _288  and  _289
REMARK  123  A    between atoms: _298  and  _300
REMARK  124  A    between atoms: _300  and  _301
REMARK  125  A    between atoms: _300  and  _303
REMARK  126  A    between atoms: _303  and  _304
REMARK  127  A    between atoms: _309  and  _311
REMARK  128  A    between atoms: _311  and  _312
REMARK  129  A    between atoms: _311  and  _314
REMARK  130  A    between atoms: _317  and  _319
REMARK  131  A    between atoms: _319  and  _320
REMARK  132  A    between atoms: _319  and  _322
REMARK  133  A    between atoms: _322  and  _323
REMARK  134  A    between atoms: _323  and  _324
REMARK  135  A    between atoms: _327  and  _329
REMARK  136  A    between atoms: _329  and  _330
REMARK  137  A    between atoms: _329  and  _332
REMARK  138  A    between atoms: _334  and  _336
REMARK  139  A    between atoms: _336  and  _337
REMARK  140  A    between atoms: _336  and  _339
REMARK  141  A    between atoms: _339  and  _340
REMARK  142  A    between atoms: _342  and  _344
REMARK  143  A    between atoms: _344  and  _345
REMARK  144  A    between atoms: _344  and  _347
REMARK  145  A    between atoms: _347  and  _348
REMARK  146  A    between atoms: _348  and  _349
REMARK  147  A    between atoms: _351  and  _353
REMARK  148  A    between atoms: _353  and  _354
REMARK  149  A    between atoms: _353  and  _356
REMARK  150  A    between atoms: _356  and  _357
REMARK  151  A    between atoms: _357  and  _358
REMARK  152  A    between atoms: _363  and  _365
REMARK  153  A    between atoms: _365  and  _366
REMARK  154  A    between atoms: _365  and  _368
REMARK  155  A    between atoms: _368  and  _369
REMARK  156  A    between atoms: _369  and  _370
REMARK  157  A    between atoms: _370  and  _371
REMARK  158  A    between atoms: _380  and  _382
REMARK  159  A    between atoms: _382  and  _383
REMARK  160  A    between atoms: _382  and  _385
REMARK  161  A    between atoms: _385  and  _386
REMARK  162  A    between atoms: _386  and  _387
REMARK  163  A    between atoms: _387  and  _388
REMARK  164  A    between atoms: _397  and  _399
REMARK  165  A    between atoms: _399  and  _400
REMARK  166  A    between atoms: _399  and  _402
REMARK  167  A    between atoms: _402  and  _403
REMARK  168  A    between atoms: _408  and  _410
REMARK  169  A    between atoms: _410  and  _411
REMARK  170  A    between atoms: _410  and  _413
REMARK  171  A    between atoms: _413  and  _414
REMARK  172  A    between atoms: _414  and  _415
REMARK  173  A    between atoms: _420  and  _422
REMARK  174  A    between atoms: _422  and  _423
REMARK  175  A    between atoms: _422  and  _425
REMARK  176  A    between atoms: _425  and  _426
REMARK  177  A    between atoms: _426  and  _427
REMARK  178  A    between atoms: _427  and  _428
REMARK  179  A    between atoms: _428  and  _429
REMARK  180  A    between atoms: _433  and  _435
REMARK  181  A    between atoms: _435  and  _436
REMARK  182  A    between atoms: _435  and  _438
REMARK  183  A    between atoms: _438  and  _439
REMARK  184  A    between atoms: _439  and  _440
REMARK  185  A    between atoms: _443  and  _445
REMARK  186  A    between atoms: _445  and  _446
REMARK  187  A    between atoms: _445  and  _448
REMARK  188  A    between atoms: _448  and  _449
REMARK  189  A    between atoms: _455  and  _457
REMARK  190  A    between atoms: _457  and  _458
REMARK  191  A    between atoms: _457  and  _460
REMARK  192  A    between atoms: _460  and  _461
REMARK  193  A    between atoms: _464  and  _466
REMARK  194  A    between atoms: _466  and  _467
REMARK  195  A    between atoms: _466  and  _469
REMARK  196  A    between atoms: _469  and  _470
REMARK  197  A    between atoms: _470  and  _471
REMARK  198  A    between atoms: _474  and  _476
REMARK  199  A    between atoms: _476  and  _477
REMARK  200  A    between atoms: _476  and  _479
REMARK  201  A    between atoms: _479  and  _480
REMARK  202  A    between atoms: _485  and  _486
REMARK  203  A    between atoms: _488  and  _490
REMARK  204  A    between atoms: _490  and  _491
REMARK  205  A    between atoms: _490  and  _493
REMARK  206  A    between atoms: _493  and  _494
REMARK  207  A    between atoms: _500  and  _502
REMARK  208  A    between atoms: _502  and  _503
REMARK  209  A    between atoms: _502  and  _505
REMARK  210  A    between atoms: _505  and  _506
REMARK  211  A    between atoms: _509  and  _511
REMARK  212  A    between atoms: _511  and  _512
REMARK  213  A    between atoms: _511  and  _514
REMARK  214  A    between atoms: _514  and  _515
REMARK  215  A    between atoms: _515  and  _516
REMARK  216  A    between atoms: _516  and  _518
REMARK  217  A    between atoms: _518  and  MG_609
REMARK  218  A    between atoms: _519  and  _521
REMARK  219  A    between atoms: _521  and  _522
REMARK  220  A    between atoms: _521  and  _524
REMARK  221  A    between atoms: _524  and  _525
REMARK  222  A    between atoms: _525  and  _526
REMARK  223  A    between atoms: _528  and  _530
REMARK  224  A    between atoms: _530  and  _531
REMARK  225  A    between atoms: _530  and  _533
REMARK  226  A    between atoms: _533  and  _534
REMARK  227  A    between atoms: _539  and  _541
REMARK  228  A    between atoms: _541  and  _542
REMARK  229  A    between atoms: _541  and  _544
REMARK  230  A    between atoms: _544  and  _545
REMARK  231  A    between atoms: _545  and  _546
REMARK  232  A    between atoms: _546  and  _547
REMARK  233  A    between atoms: _556  and  _558
REMARK  234  A    between atoms: _558  and  _559
REMARK  235  A    between atoms: _558  and  _561
REMARK  236  A    between atoms: _561  and  _562
REMARK  237  A    between atoms: _562  and  _563
REMARK  238  A    between atoms: _568  and  _570
REMARK  239  A    between atoms: _570  and  _571
REMARK  240  A    between atoms: _570  and  _573
REMARK  241  A    between atoms: _573  and  _574
REMARK  242  A    between atoms: _579  and  _581
REMARK  243  A    between atoms: _581  and  _582
REMARK  244  A    between atoms: _581  and  _584
REMARK  245  A    between atoms: _584  and  _585
REMARK  246  A    between atoms: _588  and  _590
REMARK  247  A    between atoms: _590  and  _591
REMARK  248  A    between atoms: _590  and  _593
REMARK  249  A    between atoms: _593  and  _594
REMARK  250  A    between atoms: _599  and  _601
REMARK  251  A    between atoms: _601  and  _602
REMARK  252  A    between atoms: _601  and  _604
REMARK  253  A    between atoms: _604  and  _605
REMARK  254  A    between atoms: _605  and  _606
REMARK                            x       y       z     vdW  Elec       q    Type
REMARK                         _______ _______ _______ _____ _____    ______ ____
ROOT
ATOM      1  O   HOH     1     -25.362 -17.674  23.737  0.00  0.00    +0.000 OA
ENDROOT
TORSDOF 0
REMARK  Name = ../refined-set-2016/3rv4/3rv4_pocket.pdb
REMARK  254 active torsions:
REMARK  status: ('A' for Active; 'I' for Inactive)
REMARK    1  A    between atoms: _1  and  _3
REMARK    2  A    between atoms: _3  and  _4
REMARK    3  A    between atoms: _3  and  _6
REMARK    4  A    between atoms: _6  and  _7
REMARK    5  A    between atoms: _7  and  _8
REMARK    6  A    between atoms: _11  and  _13
REMARK    7  A    between atoms: _13  and  _14
REMARK    8  A    between atoms: _13  and  _16
REMARK    9  A    between atoms: _16  and  _17
REMARK   10  A    between atoms: _17  and  _18
REMARK   11  A    between atoms: _18  and  _19
REMARK   12  A    between atoms: _19  and  _20
REMARK   13  A    between atoms: _24  and  _26
REMARK   14  A    between atoms: _26  and  _27
REMARK   15  A    between atoms: _26  and  _29
REMARK   16  A    between atoms: _29  and  _30
REMARK   17  A    between atoms: _33  and  _35
REMARK   18  A    between atoms: _35  and  _36
REMARK   19  A    between atoms: _35  and  _38
REMARK   20  A    between atoms: _42  and  _43
REMARK   21  A    between atoms: _49  and  _50
REMARK   22  A    between atoms: _55  and  _57
REMARK   23  A    between atoms: _57  and  _58
REMARK   24  A    between atoms: _57  and  _60
REMARK   25  A    between atoms: _63  and  _65
REMARK   26  A    between atoms: _65  and  _66
REMARK   27  A    between atoms: _65  and  _68
REMARK   28  A    between atoms: _68  and  _69
REMARK   29  A    between atoms: _72  and  _74
REMARK   30  A    between atoms: _74  and  _75
REMARK   31  A    between atoms: _74  and  _77
REMARK   32  A    between atoms: _77  and  _78
REMARK   33  A    between atoms: _81  and  _83
REMARK   34  A    between atoms: _83  and  _84
REMARK   35  A    between atoms: _83  and  _86
REMARK   36  A    between atoms: _86  and  _87
REMARK   37  A    between atoms: _87  and  _88
REMARK   38  A    between atoms: _88  and  _89
REMARK   39  A    between atoms: _89  and  _90
REMARK   40  A    between atoms: _94  and  _96
REMARK   41  A    between atoms: _96  and  _97
REMARK   42  A    between atoms: _100  and  _102
REMARK   43  A    between atoms: _102  and  _103
REMARK   44  A    between atoms: _102  and  _105
REMARK   45  A    between atoms: _105  and  _106
REMARK   46  A    between atoms: _108  and  _110
REMARK   47  A    between atoms: _110  and  _111
REMARK   48  A    between atoms: _113  and  _115
REMARK   49  A    between atoms: _115  and  _116
REMARK   50  A    between atoms: _118  and  _120
REMARK   51  A    between atoms: _120  and  _121
REMARK   52  A    between atoms: _123  and  _125
REMARK   53  A    between atoms: _125  and  _126
REMARK   54  A    between atoms: _128  and  _130
REMARK   55  A    between atoms: _130  and  _131
REMARK   56  A    between atoms: _133  and  _135
REMARK   57  A    between atoms: _135  and  _136
REMARK   58  A    between atoms: _135  and  _138
REMARK   59  A    between atoms: _138  and  _139
REMARK   60  A    between atoms: _139  and  _140
REMARK   61  A    between atoms: _140  and  _141
REMARK   62  A    between atoms: _150  and  _152
REMARK   63  A    between atoms: _152  and  _153
REMARK   64  A    between atoms: _155  and  _157
REMARK   65  A    between atoms: _157  and  _158
REMARK   66  A    between atoms: _157  and  _160
REMARK   67  A    between atoms: _160  and  _161
REMARK   68  A    between atoms: _161  and  _162
REMARK   69  A    between atoms: _164  and  _166
REMARK   70  A    between atoms: _166  and  _167
REMARK   71  A    between atoms: _166  and  _169
REMARK   72  A    between atoms: _172  and  _174
REMARK   73  A    between atoms: _174  and  _175
REMARK   74  A    between atoms: _174  and  _177
REMARK   75  A    between atoms: _177  and  _178
REMARK   76  A    between atoms: _184  and  _186
REMARK   77  A    between atoms: _186  and  _187
REMARK   78  A    between atoms: _186  and  _189
REMARK   79  A    between atoms: _189  and  _190
REMARK   80  A    between atoms: _195  and  _196
REMARK   81  A    between atoms: _198  and  _200
REMARK   82  A    between atoms: _200  and  _201
REMARK   83  A    between atoms: _200  and  _203
REMARK   84  A    between atoms: _203  and  _204
REMARK   85  A    between atoms: _204  and  _205
REMARK   86  A    between atoms: _207  and  _209
REMARK   87  A    between atoms: _209  and  _210
REMARK   88  A    between atoms: _209  and  _212
REMARK   89  A    between atoms: _212  and  _213
REMARK   90  A    between atoms: _213  and  _214
REMARK   91  A    between atoms: _217  and  _219
REMARK   92  A    between atoms: _219  and  _220
REMARK   93  A    between atoms: _219  and  _222
REMARK   94  A    between atoms: _222  and  _223
REMARK   95  A    between atoms: _223  and  _224
REMARK   96  A    between atoms: _224  and  _225
REMARK   97  A    between atoms: _225  and  _226
REMARK   98  A    between atoms: _230  and  _232
REMARK   99  A    between atoms: _232  and  _233
REMARK  100  A    between atoms: _232  and  _235
REMARK  101  A    between atoms: _235  and  _236
REMARK  102  A    between atoms: _241  and  _242
REMARK  103  A    between atoms: _244  and  _246
REMARK  104  A    between atoms: _246  and  _247
REMARK  105  A    between atoms: _246  and  _249
REMARK  106  A    between atoms: _249  and  _250
REMARK  107  A    between atoms: _253  and  _255
REMARK  108  A    between atoms: _255  and  _256
REMARK  109  A    between atoms: _255  and  _258
REMARK  110  A    between atoms: _258  and  _259
REMARK  111  A    between atoms: _259  and  _260
REMARK  112  A    between atoms: _263  and  _265
REMARK  113  A    between atoms: _265  and  _266
REMARK  114  A    between atoms: _265  and  _268
REMARK  115  A    between atoms: _268  and  _269
REMARK  116  A    between atoms: _275  and  _276
REMARK  117  A    between atoms: _281  and  _283
REMARK  118  A    between atoms: _283  and  _284
REMARK  119  A    between atoms: _283  and  _286
REMARK  120  A    between atoms: _286  and  _287
REMARK  121  A    between atoms: _287  and  _288
REMARK  122  A    between atoms: _288  and  _289
REMARK  123  A    between atoms: _298  and  _300
REMARK  124  A    between atoms: _300  and  _301
REMARK  125  A    between atoms: _300  and  _303
REMARK  126  A    between atoms: _303  and  _304
REMARK  127  A    between atoms: _309  and  _311
REMARK  128  A    between atoms: _311  and  _312
REMARK  129  A    between atoms: _311  and  _314
REMARK  130  A    between atoms: _317  and  _319
REMARK  131  A    between atoms: _319  and  _320
REMARK  132  A    between atoms: _319  and  _322
REMARK  133  A    between atoms: _322  and  _323
REMARK  134  A    between atoms: _323  and  _324
REMARK  135  A    between atoms: _327  and  _329
REMARK  136  A    between atoms: _329  and  _330
REMARK  137  A    between atoms: _329  and  _332
REMARK  138  A    between atoms: _334  and  _336
REMARK  139  A    between atoms: _336  and  _337
REMARK  140  A    between atoms: _336  and  _339
REMARK  141  A    between atoms: _339  and  _340
REMARK  142  A    between atoms: _342  and  _344
REMARK  143  A    between atoms: _344  and  _345
REMARK  144  A    between atoms: _344  and  _347
REMARK  145  A    between atoms: _347  and  _348
REMARK  146  A    between atoms: _348  and  _349
REMARK  147  A    between atoms: _351  and  _353
REMARK  148  A    between atoms: _353  and  _354
REMARK  149  A    between atoms: _353  and  _356
REMARK  150  A    between atoms: _356  and  _357
REMARK  151  A    between atoms: _357  and  _358
REMARK  152  A    between atoms: _363  and  _365
REMARK  153  A    between atoms: _365  and  _366
REMARK  154  A    between atoms: _365  and  _368
REMARK  155  A    between atoms: _368  and  _369
REMARK  156  A    between atoms: _369  and  _370
REMARK  157  A    between atoms: _370  and  _371
REMARK  158  A    between atoms: _380  and  _382
REMARK  159  A    between atoms: _382  and  _383
REMARK  160  A    between atoms: _382  and  _385
REMARK  161  A    between atoms: _385  and  _386
REMARK  162  A    between atoms: _386  and  _387
REMARK  163  A    between atoms: _387  and  _388
REMARK  164  A    between atoms: _397  and  _399
REMARK  165  A    between atoms: _399  and  _400
REMARK  166  A    between atoms: _399  and  _402
REMARK  167  A    between atoms: _402  and  _403
REMARK  168  A    between atoms: _408  and  _410
REMARK  169  A    between atoms: _410  and  _411
REMARK  170  A    between atoms: _410  and  _413
REMARK  171  A    between atoms: _413  and  _414
REMARK  172  A    between atoms: _414  and  _415
REMARK  173  A    between atoms: _420  and  _422
REMARK  174  A    between atoms: _422  and  _423
REMARK  175  A    between atoms: _422  and  _425
REMARK  176  A    between atoms: _425  and  _426
REMARK  177  A    between atoms: _426  and  _427
REMARK  178  A    between atoms: _427  and  _428
REMARK  179  A    between atoms: _428  and  _429
REMARK  180  A    between atoms: _433  and  _435
REMARK  181  A    between atoms: _435  and  _436
REMARK  182  A    between atoms: _435  and  _438
REMARK  183  A    between atoms: _438  and  _439
REMARK  184  A    between atoms: _439  and  _440
REMARK  185  A    between atoms: _443  and  _445
REMARK  186  A    between atoms: _445  and  _446
REMARK  187  A    between atoms: _445  and  _448
REMARK  188  A    between atoms: _448  and  _449
REMARK  189  A    between atoms: _455  and  _457
REMARK  190  A    between atoms: _457  and  _458
REMARK  191  A    between atoms: _457  and  _460
REMARK  192  A    between atoms: _460  and  _461
REMARK  193  A    between atoms: _464  and  _466
REMARK  194  A    between atoms: _466  and  _467
REMARK  195  A    between atoms: _466  and  _469
REMARK  196  A    between atoms: _469  and  _470
REMARK  197  A    between atoms: _470  and  _471
REMARK  198  A    between atoms: _474  and  _476
REMARK  199  A    between atoms: _476  and  _477
REMARK  200  A    between atoms: _476  and  _479
REMARK  201  A    between atoms: _479  and  _480
REMARK  202  A    between atoms: _485  and  _486
REMARK  203  A    between atoms: _488  and  _490
REMARK  204  A    between atoms: _490  and  _491
REMARK  205  A    between atoms: _490  and  _493
REMARK  206  A    between atoms: _493  and  _494
REMARK  207  A    between atoms: _500  and  _502
REMARK  208  A    between atoms: _502  and  _503
REMARK  209  A    between atoms: _502  and  _505
REMARK  210  A    between atoms: _505  and  _506
REMARK  211  A    between atoms: _509  and  _511
REMARK  212  A    between atoms: _511  and  _512
REMARK  213  A    between atoms: _511  and  _514
REMARK  214  A    between atoms: _514  and  _515
REMARK  215  A    between atoms: _515  and  _516
REMARK  216  A    between atoms: _516  and  _518
REMARK  217  A    between atoms: _518  and  MG_609
REMARK  218  A    between atoms: _519  and  _521
REMARK  219  A    between atoms: _521  and  _522
REMARK  220  A    between atoms: _521  and  _524
REMARK  221  A    between atoms: _524  and  _525
REMARK  222  A    between atoms: _525  and  _526
REMARK  223  A    between atoms: _528  and  _530
REMARK  224  A    between atoms: _530  and  _531
REMARK  225  A    between atoms: _530  and  _533
REMARK  226  A    between atoms: _533  and  _534
REMARK  227  A    between atoms: _539  and  _541
REMARK  228  A    between atoms: _541  and  _542
REMARK  229  A    between atoms: _541  and  _544
REMARK  230  A    between atoms: _544  and  _545
REMARK  231  A    between atoms: _545  and  _546
REMARK  232  A    between atoms: _546  and  _547
REMARK  233  A    between atoms: _556  and  _558
REMARK  234  A    between atoms: _558  and  _559
REMARK  235  A    between atoms: _558  and  _561
REMARK  236  A    between atoms: _561  and  _562
REMARK  237  A    between atoms: _562  and  _563
REMARK  238  A    between atoms: _568  and  _570
REMARK  239  A    between atoms: _570  and  _571
REMARK  240  A    between atoms: _570  and  _573
REMARK  241  A    between atoms: _573  and  _574
REMARK  242  A    between atoms: _579  and  _581
REMARK  243  A    between atoms: _581  and  _582
REMARK  244  A    between atoms: _581  and  _584
REMARK  245  A    between atoms: _584  and  _585
REMARK  246  A    between atoms: _588  and  _590
REMARK  247  A    between atoms: _590  and  _591
REMARK  248  A    between atoms: _590  and  _593
REMARK  249  A    between atoms: _593  and  _594
REMARK  250  A    between atoms: _599  and  _601
REMARK  251  A    between atoms: _601  and  _602
REMARK  252  A    between atoms: _601  and  _604
REMARK  253  A    between atoms: _604  and  _605
REMARK  254  A    between atoms: _605  and  _606
REMARK                            x       y       z     vdW  Elec       q    Type
REMARK                         _______ _______ _______ _____ _____    ______ ____
ROOT
ATOM      1  O   HOH     1     -20.060 -18.411  18.907  0.00  0.00    +0.000 OA
ENDROOT
TORSDOF 0
REMARK  Name = ../refined-set-2016/3rv4/3rv4_pocket.pdb
REMARK  254 active torsions:
REMARK  status: ('A' for Active; 'I' for Inactive)
REMARK    1  A    between atoms: _1  and  _3
REMARK    2  A    between atoms: _3  and  _4
REMARK    3  A    between atoms: _3  and  _6
REMARK    4  A    between atoms: _6  and  _7
REMARK    5  A    between atoms: _7  and  _8
REMARK    6  A    between atoms: _11  and  _13
REMARK    7  A    between atoms: _13  and  _14
REMARK    8  A    between atoms: _13  and  _16
REMARK    9  A    between atoms: _16  and  _17
REMARK   10  A    between atoms: _17  and  _18
REMARK   11  A    between atoms: _18  and  _19
REMARK   12  A    between atoms: _19  and  _20
REMARK   13  A    between atoms: _24  and  _26
REMARK   14  A    between atoms: _26  and  _27
REMARK   15  A    between atoms: _26  and  _29
REMARK   16  A    between atoms: _29  and  _30
REMARK   17  A    between atoms: _33  and  _35
REMARK   18  A    between atoms: _35  and  _36
REMARK   19  A    between atoms: _35  and  _38
REMARK   20  A    between atoms: _42  and  _43
REMARK   21  A    between atoms: _49  and  _50
REMARK   22  A    between atoms: _55  and  _57
REMARK   23  A    between atoms: _57  and  _58
REMARK   24  A    between atoms: _57  and  _60
REMARK   25  A    between atoms: _63  and  _65
REMARK   26  A    between atoms: _65  and  _66
REMARK   27  A    between atoms: _65  and  _68
REMARK   28  A    between atoms: _68  and  _69
REMARK   29  A    between atoms: _72  and  _74
REMARK   30  A    between atoms: _74  and  _75
REMARK   31  A    between atoms: _74  and  _77
REMARK   32  A    between atoms: _77  and  _78
REMARK   33  A    between atoms: _81  and  _83
REMARK   34  A    between atoms: _83  and  _84
REMARK   35  A    between atoms: _83  and  _86
REMARK   36  A    between atoms: _86  and  _87
REMARK   37  A    between atoms: _87  and  _88
REMARK   38  A    between atoms: _88  and  _89
REMARK   39  A    between atoms: _89  and  _90
REMARK   40  A    between atoms: _94  and  _96
REMARK   41  A    between atoms: _96  and  _97
REMARK   42  A    between atoms: _100  and  _102
REMARK   43  A    between atoms: _102  and  _103
REMARK   44  A    between atoms: _102  and  _105
REMARK   45  A    between atoms: _105  and  _106
REMARK   46  A    between atoms: _108  and  _110
REMARK   47  A    between atoms: _110  and  _111
REMARK   48  A    between atoms: _113  and  _115
REMARK   49  A    between atoms: _115  and  _116
REMARK   50  A    between atoms: _118  and  _120
REMARK   51  A    between atoms: _120  and  _121
REMARK   52  A    between atoms: _123  and  _125
REMARK   53  A    between atoms: _125  and  _126
REMARK   54  A    between atoms: _128  and  _130
REMARK   55  A    between atoms: _130  and  _131
REMARK   56  A    between atoms: _133  and  _135
REMARK   57  A    between atoms: _135  and  _136
REMARK   58  A    between atoms: _135  and  _138
REMARK   59  A    between atoms: _138  and  _139
REMARK   60  A    between atoms: _139  and  _140
REMARK   61  A    between atoms: _140  and  _141
REMARK   62  A    between atoms: _150  and  _152
REMARK   63  A    between atoms: _152  and  _153
REMARK   64  A    between atoms: _155  and  _157
REMARK   65  A    between atoms: _157  and  _158
REMARK   66  A    between atoms: _157  and  _160
REMARK   67  A    between atoms: _160  and  _161
REMARK   68  A    between atoms: _161  and  _162
REMARK   69  A    between atoms: _164  and  _166
REMARK   70  A    between atoms: _166  and  _167
REMARK   71  A    between atoms: _166  and  _169
REMARK   72  A    between atoms: _172  and  _174
REMARK   73  A    between atoms: _174  and  _175
REMARK   74  A    between atoms: _174  and  _177
REMARK   75  A    between atoms: _177  and  _178
REMARK   76  A    between atoms: _184  and  _186
REMARK   77  A    between atoms: _186  and  _187
REMARK   78  A    between atoms: _186  and  _189
REMARK   79  A    between atoms: _189  and  _190
REMARK   80  A    between atoms: _195  and  _196
REMARK   81  A    between atoms: _198  and  _200
REMARK   82  A    between atoms: _200  and  _201
REMARK   83  A    between atoms: _200  and  _203
REMARK   84  A    between atoms: _203  and  _204
REMARK   85  A    between atoms: _204  and  _205
REMARK   86  A    between atoms: _207  and  _209
REMARK   87  A    between atoms: _209  and  _210
REMARK   88  A    between atoms: _209  and  _212
REMARK   89  A    between atoms: _212  and  _213
REMARK   90  A    between atoms: _213  and  _214
REMARK   91  A    between atoms: _217  and  _219
REMARK   92  A    between atoms: _219  and  _220
REMARK   93  A    between atoms: _219  and  _222
REMARK   94  A    between atoms: _222  and  _223
REMARK   95  A    between atoms: _223  and  _224
REMARK   96  A    between atoms: _224  and  _225
REMARK   97  A    between atoms: _225  and  _226
REMARK   98  A    between atoms: _230  and  _232
REMARK   99  A    between atoms: _232  and  _233
REMARK  100  A    between atoms: _232  and  _235
REMARK  101  A    between atoms: _235  and  _236
REMARK  102  A    between atoms: _241  and  _242
REMARK  103  A    between atoms: _244  and  _246
REMARK  104  A    between atoms: _246  and  _247
REMARK  105  A    between atoms: _246  and  _249
REMARK  106  A    between atoms: _249  and  _250
REMARK  107  A    between atoms: _253  and  _255
REMARK  108  A    between atoms: _255  and  _256
REMARK  109  A    between atoms: _255  and  _258
REMARK  110  A    between atoms: _258  and  _259
REMARK  111  A    between atoms: _259  and  _260
REMARK  112  A    between atoms: _263  and  _265
REMARK  113  A    between atoms: _265  and  _266
REMARK  114  A    between atoms: _265  and  _268
REMARK  115  A    between atoms: _268  and  _269
REMARK  116  A    between atoms: _275  and  _276
REMARK  117  A    between atoms: _281  and  _283
REMARK  118  A    between atoms: _283  and  _284
REMARK  119  A    between atoms: _283  and  _286
REMARK  120  A    between atoms: _286  and  _287
REMARK  121  A    between atoms: _287  and  _288
REMARK  122  A    between atoms: _288  and  _289
REMARK  123  A    between atoms: _298  and  _300
REMARK  124  A    between atoms: _300  and  _301
REMARK  125  A    between atoms: _300  and  _303
REMARK  126  A    between atoms: _303  and  _304
REMARK  127  A    between atoms: _309  and  _311
REMARK  128  A    between atoms: _311  and  _312
REMARK  129  A    between atoms: _311  and  _314
REMARK  130  A    between atoms: _317  and  _319
REMARK  131  A    between atoms: _319  and  _320
REMARK  132  A    between atoms: _319  and  _322
REMARK  133  A    between atoms: _322  and  _323
REMARK  134  A    between atoms: _323  and  _324
REMARK  135  A    between atoms: _327  and  _329
REMARK  136  A    between atoms: _329  and  _330
REMARK  137  A    between atoms: _329  and  _332
REMARK  138  A    between atoms: _334  and  _336
REMARK  139  A    between atoms: _336  and  _337
REMARK  140  A    between atoms: _336  and  _339
REMARK  141  A    between atoms: _339  and  _340
REMARK  142  A    between atoms: _342  and  _344
REMARK  143  A    between atoms: _344  and  _345
REMARK  144  A    between atoms: _344  and  _347
REMARK  145  A    between atoms: _347  and  _348
REMARK  146  A    between atoms: _348  and  _349
REMARK  147  A    between atoms: _351  and  _353
REMARK  148  A    between atoms: _353  and  _354
REMARK  149  A    between atoms: _353  and  _356
REMARK  150  A    between atoms: _356  and  _357
REMARK  151  A    between atoms: _357  and  _358
REMARK  152  A    between atoms: _363  and  _365
REMARK  153  A    between atoms: _365  and  _366
REMARK  154  A    between atoms: _365  and  _368
REMARK  155  A    between atoms: _368  and  _369
REMARK  156  A    between atoms: _369  and  _370
REMARK  157  A    between atoms: _370  and  _371
REMARK  158  A    between atoms: _380  and  _382
REMARK  159  A    between atoms: _382  and  _383
REMARK  160  A    between atoms: _382  and  _385
REMARK  161  A    between atoms: _385  and  _386
REMARK  162  A    between atoms: _386  and  _387
REMARK  163  A    between atoms: _387  and  _388
REMARK  164  A    between atoms: _397  and  _399
REMARK  165  A    between atoms: _399  and  _400
REMARK  166  A    between atoms: _399  and  _402
REMARK  167  A    between atoms: _402  and  _403
REMARK  168  A    between atoms: _408  and  _410
REMARK  169  A    between atoms: _410  and  _411
REMARK  170  A    between atoms: _410  and  _413
REMARK  171  A    between atoms: _413  and  _414
REMARK  172  A    between atoms: _414  and  _415
REMARK  173  A    between atoms: _420  and  _422
REMARK  174  A    between atoms: _422  and  _423
REMARK  175  A    between atoms: _422  and  _425
REMARK  176  A    between atoms: _425  and  _426
REMARK  177  A    between atoms: _426  and  _427
REMARK  178  A    between atoms: _427  and  _428
REMARK  179  A    between atoms: _428  and  _429
REMARK  180  A    between atoms: _433  and  _435
REMARK  181  A    between atoms: _435  and  _436
REMARK  182  A    between atoms: _435  and  _438
REMARK  183  A    between atoms: _438  and  _439
REMARK  184  A    between atoms: _439  and  _440
REMARK  185  A    between atoms: _443  and  _445
REMARK  186  A    between atoms: _445  and  _446
REMARK  187  A    between atoms: _445  and  _448
REMARK  188  A    between atoms: _448  and  _449
REMARK  189  A    between atoms: _455  and  _457
REMARK  190  A    between atoms: _457  and  _458
REMARK  191  A    between atoms: _457  and  _460
REMARK  192  A    between atoms: _460  and  _461
REMARK  193  A    between atoms: _464  and  _466
REMARK  194  A    between atoms: _466  and  _467
REMARK  195  A    between atoms: _466  and  _469
REMARK  196  A    between atoms: _469  and  _470
REMARK  197  A    between atoms: _470  and  _471
REMARK  198  A    between atoms: _474  and  _476
REMARK  199  A    between atoms: _476  and  _477
REMARK  200  A    between atoms: _476  and  _479
REMARK  201  A    between atoms: _479  and  _480
REMARK  202  A    between atoms: _485  and  _486
REMARK  203  A    between atoms: _488  and  _490
REMARK  204  A    between atoms: _490  and  _491
REMARK  205  A    between atoms: _490  and  _493
REMARK  206  A    between atoms: _493  and  _494
REMARK  207  A    between atoms: _500  and  _502
REMARK  208  A    between atoms: _502  and  _503
REMARK  209  A    between atoms: _502  and  _505
REMARK  210  A    between atoms: _505  and  _506
REMARK  211  A    between atoms: _509  and  _511
REMARK  212  A    between atoms: _511  and  _512
REMARK  213  A    between atoms: _511  and  _514
REMARK  214  A    between atoms: _514  and  _515
REMARK  215  A    between atoms: _515  and  _516
REMARK  216  A    between atoms: _516  and  _518
REMARK  217  A    between atoms: _518  and  MG_609
REMARK  218  A    between atoms: _519  and  _521
REMARK  219  A    between atoms: _521  and  _522
REMARK  220  A    between atoms: _521  and  _524
REMARK  221  A    between atoms: _524  and  _525
REMARK  222  A    between atoms: _525  and  _526
REMARK  223  A    between atoms: _528  and  _530
REMARK  224  A    between atoms: _530  and  _531
REMARK  225  A    between atoms: _530  and  _533
REMARK  226  A    between atoms: _533  and  _534
REMARK  227  A    between atoms: _539  and  _541
REMARK  228  A    between atoms: _541  and  _542
REMARK  229  A    between atoms: _541  and  _544
REMARK  230  A    between atoms: _544  and  _545
REMARK  231  A    between atoms: _545  and  _546
REMARK  232  A    between atoms: _546  and  _547
REMARK  233  A    between atoms: _556  and  _558
REMARK  234  A    between atoms: _558  and  _559
REMARK  235  A    between atoms: _558  and  _561
REMARK  236  A    between atoms: _561  and  _562
REMARK  237  A    between atoms: _562  and  _563
REMARK  238  A    between atoms: _568  and  _570
REMARK  239  A    between atoms: _570  and  _571
REMARK  240  A    between atoms: _570  and  _573
REMARK  241  A    between atoms: _573  and  _574
REMARK  242  A    between atoms: _579  and  _581
REMARK  243  A    between atoms: _581  and  _582
REMARK  244  A    between atoms: _581  and  _584
REMARK  245  A    between atoms: _584  and  _585
REMARK  246  A    between atoms: _588  and  _590
REMARK  247  A    between atoms: _590  and  _591
REMARK  248  A    between atoms: _590  and  _593
REMARK  249  A    between atoms: _593  and  _594
REMARK  250  A    between atoms: _599  and  _601
REMARK  251  A    between atoms: _601  and  _602
REMARK  252  A    between atoms: _601  and  _604
REMARK  253  A    between atoms: _604  and  _605
REMARK  254  A    between atoms: _605  and  _606
REMARK                            x       y       z     vdW  Elec       q    Type
REMARK                         _______ _______ _______ _____ _____    ______ ____
ROOT
ATOM      1  O   HOH     1     -23.057 -17.948  14.742  0.00  0.00    +0.000 OA
ENDROOT
TORSDOF 0
REMARK  Name = ../refined-set-2016/3rv4/3rv4_pocket.pdb
REMARK  254 active torsions:
REMARK  status: ('A' for Active; 'I' for Inactive)
REMARK    1  A    between atoms: _1  and  _3
REMARK    2  A    between atoms: _3  and  _4
REMARK    3  A    between atoms: _3  and  _6
REMARK    4  A    between atoms: _6  and  _7
REMARK    5  A    between atoms: _7  and  _8
REMARK    6  A    between atoms: _11  and  _13
REMARK    7  A    between atoms: _13  and  _14
REMARK    8  A    between atoms: _13  and  _16
REMARK    9  A    between atoms: _16  and  _17
REMARK   10  A    between atoms: _17  and  _18
REMARK   11  A    between atoms: _18  and  _19
REMARK   12  A    between atoms: _19  and  _20
REMARK   13  A    between atoms: _24  and  _26
REMARK   14  A    between atoms: _26  and  _27
REMARK   15  A    between atoms: _26  and  _29
REMARK   16  A    between atoms: _29  and  _30
REMARK   17  A    between atoms: _33  and  _35
REMARK   18  A    between atoms: _35  and  _36
REMARK   19  A    between atoms: _35  and  _38
REMARK   20  A    between atoms: _42  and  _43
REMARK   21  A    between atoms: _49  and  _50
REMARK   22  A    between atoms: _55  and  _57
REMARK   23  A    between atoms: _57  and  _58
REMARK   24  A    between atoms: _57  and  _60
REMARK   25  A    between atoms: _63  and  _65
REMARK   26  A    between atoms: _65  and  _66
REMARK   27  A    between atoms: _65  and  _68
REMARK   28  A    between atoms: _68  and  _69
REMARK   29  A    between atoms: _72  and  _74
REMARK   30  A    between atoms: _74  and  _75
REMARK   31  A    between atoms: _74  and  _77
REMARK   32  A    between atoms: _77  and  _78
REMARK   33  A    between atoms: _81  and  _83
REMARK   34  A    between atoms: _83  and  _84
REMARK   35  A    between atoms: _83  and  _86
REMARK   36  A    between atoms: _86  and  _87
REMARK   37  A    between atoms: _87  and  _88
REMARK   38  A    between atoms: _88  and  _89
REMARK   39  A    between atoms: _89  and  _90
REMARK   40  A    between atoms: _94  and  _96
REMARK   41  A    between atoms: _96  and  _97
REMARK   42  A    between atoms: _100  and  _102
REMARK   43  A    between atoms: _102  and  _103
REMARK   44  A    between atoms: _102  and  _105
REMARK   45  A    between atoms: _105  and  _106
REMARK   46  A    between atoms: _108  and  _110
REMARK   47  A    between atoms: _110  and  _111
REMARK   48  A    between atoms: _113  and  _115
REMARK   49  A    between atoms: _115  and  _116
REMARK   50  A    between atoms: _118  and  _120
REMARK   51  A    between atoms: _120  and  _121
REMARK   52  A    between atoms: _123  and  _125
REMARK   53  A    between atoms: _125  and  _126
REMARK   54  A    between atoms: _128  and  _130
REMARK   55  A    between atoms: _130  and  _131
REMARK   56  A    between atoms: _133  and  _135
REMARK   57  A    between atoms: _135  and  _136
REMARK   58  A    between atoms: _135  and  _138
REMARK   59  A    between atoms: _138  and  _139
REMARK   60  A    between atoms: _139  and  _140
REMARK   61  A    between atoms: _140  and  _141
REMARK   62  A    between atoms: _150  and  _152
REMARK   63  A    between atoms: _152  and  _153
REMARK   64  A    between atoms: _155  and  _157
REMARK   65  A    between atoms: _157  and  _158
REMARK   66  A    between atoms: _157  and  _160
REMARK   67  A    between atoms: _160  and  _161
REMARK   68  A    between atoms: _161  and  _162
REMARK   69  A    between atoms: _164  and  _166
REMARK   70  A    between atoms: _166  and  _167
REMARK   71  A    between atoms: _166  and  _169
REMARK   72  A    between atoms: _172  and  _174
REMARK   73  A    between atoms: _174  and  _175
REMARK   74  A    between atoms: _174  and  _177
REMARK   75  A    between atoms: _177  and  _178
REMARK   76  A    between atoms: _184  and  _186
REMARK   77  A    between atoms: _186  and  _187
REMARK   78  A    between atoms: _186  and  _189
REMARK   79  A    between atoms: _189  and  _190
REMARK   80  A    between atoms: _195  and  _196
REMARK   81  A    between atoms: _198  and  _200
REMARK   82  A    between atoms: _200  and  _201
REMARK   83  A    between atoms: _200  and  _203
REMARK   84  A    between atoms: _203  and  _204
REMARK   85  A    between atoms: _204  and  _205
REMARK   86  A    between atoms: _207  and  _209
REMARK   87  A    between atoms: _209  and  _210
REMARK   88  A    between atoms: _209  and  _212
REMARK   89  A    between atoms: _212  and  _213
REMARK   90  A    between atoms: _213  and  _214
REMARK   91  A    between atoms: _217  and  _219
REMARK   92  A    between atoms: _219  and  _220
REMARK   93  A    between atoms: _219  and  _222
REMARK   94  A    between atoms: _222  and  _223
REMARK   95  A    between atoms: _223  and  _224
REMARK   96  A    between atoms: _224  and  _225
REMARK   97  A    between atoms: _225  and  _226
REMARK   98  A    between atoms: _230  and  _232
REMARK   99  A    between atoms: _232  and  _233
REMARK  100  A    between atoms: _232  and  _235
REMARK  101  A    between atoms: _235  and  _236
REMARK  102  A    between atoms: _241  and  _242
REMARK  103  A    between atoms: _244  and  _246
REMARK  104  A    between atoms: _246  and  _247
REMARK  105  A    between atoms: _246  and  _249
REMARK  106  A    between atoms: _249  and  _250
REMARK  107  A    between atoms: _253  and  _255
REMARK  108  A    between atoms: _255  and  _256
REMARK  109  A    between atoms: _255  and  _258
REMARK  110  A    between atoms: _258  and  _259
REMARK  111  A    between atoms: _259  and  _260
REMARK  112  A    between atoms: _263  and  _265
REMARK  113  A    between atoms: _265  and  _266
REMARK  114  A    between atoms: _265  and  _268
REMARK  115  A    between atoms: _268  and  _269
REMARK  116  A    between atoms: _275  and  _276
REMARK  117  A    between atoms: _281  and  _283
REMARK  118  A    between atoms: _283  and  _284
REMARK  119  A    between atoms: _283  and  _286
REMARK  120  A    between atoms: _286  and  _287
REMARK  121  A    between atoms: _287  and  _288
REMARK  122  A    between atoms: _288  and  _289
REMARK  123  A    between atoms: _298  and  _300
REMARK  124  A    between atoms: _300  and  _301
REMARK  125  A    between atoms: _300  and  _303
REMARK  126  A    between atoms: _303  and  _304
REMARK  127  A    between atoms: _309  and  _311
REMARK  128  A    between atoms: _311  and  _312
REMARK  129  A    between atoms: _311  and  _314
REMARK  130  A    between atoms: _317  and  _319
REMARK  131  A    between atoms: _319  and  _320
REMARK  132  A    between atoms: _319  and  _322
REMARK  133  A    between atoms: _322  and  _323
REMARK  134  A    between atoms: _323  and  _324
REMARK  135  A    between atoms: _327  and  _329
REMARK  136  A    between atoms: _329  and  _330
REMARK  137  A    between atoms: _329  and  _332
REMARK  138  A    between atoms: _334  and  _336
REMARK  139  A    between atoms: _336  and  _337
REMARK  140  A    between atoms: _336  and  _339
REMARK  141  A    between atoms: _339  and  _340
REMARK  142  A    between atoms: _342  and  _344
REMARK  143  A    between atoms: _344  and  _345
REMARK  144  A    between atoms: _344  and  _347
REMARK  145  A    between atoms: _347  and  _348
REMARK  146  A    between atoms: _348  and  _349
REMARK  147  A    between atoms: _351  and  _353
REMARK  148  A    between atoms: _353  and  _354
REMARK  149  A    between atoms: _353  and  _356
REMARK  150  A    between atoms: _356  and  _357
REMARK  151  A    between atoms: _357  and  _358
REMARK  152  A    between atoms: _363  and  _365
REMARK  153  A    between atoms: _365  and  _366
REMARK  154  A    between atoms: _365  and  _368
REMARK  155  A    between atoms: _368  and  _369
REMARK  156  A    between atoms: _369  and  _370
REMARK  157  A    between atoms: _370  and  _371
REMARK  158  A    between atoms: _380  and  _382
REMARK  159  A    between atoms: _382  and  _383
REMARK  160  A    between atoms: _382  and  _385
REMARK  161  A    between atoms: _385  and  _386
REMARK  162  A    between atoms: _386  and  _387
REMARK  163  A    between atoms: _387  and  _388
REMARK  164  A    between atoms: _397  and  _399
REMARK  165  A    between atoms: _399  and  _400
REMARK  166  A    between atoms: _399  and  _402
REMARK  167  A    between atoms: _402  and  _403
REMARK  168  A    between atoms: _408  and  _410
REMARK  169  A    between atoms: _410  and  _411
REMARK  170  A    between atoms: _410  and  _413
REMARK  171  A    between atoms: _413  and  _414
REMARK  172  A    between atoms: _414  and  _415
REMARK  173  A    between atoms: _420  and  _422
REMARK  174  A    between atoms: _422  and  _423
REMARK  175  A    between atoms: _422  and  _425
REMARK  176  A    between atoms: _425  and  _426
REMARK  177  A    between atoms: _426  and  _427
REMARK  178  A    between atoms: _427  and  _428
REMARK  179  A    between atoms: _428  and  _429
REMARK  180  A    between atoms: _433  and  _435
REMARK  181  A    between atoms: _435  and  _436
REMARK  182  A    between atoms: _435  and  _438
REMARK  183  A    between atoms: _438  and  _439
REMARK  184  A    between atoms: _439  and  _440
REMARK  185  A    between atoms: _443  and  _445
REMARK  186  A    between atoms: _445  and  _446
REMARK  187  A    between atoms: _445  and  _448
REMARK  188  A    between atoms: _448  and  _449
REMARK  189  A    between atoms: _455  and  _457
REMARK  190  A    between atoms: _457  and  _458
REMARK  191  A    between atoms: _457  and  _460
REMARK  192  A    between atoms: _460  and  _461
REMARK  193  A    between atoms: _464  and  _466
REMARK  194  A    between atoms: _466  and  _467
REMARK  195  A    between atoms: _466  and  _469
REMARK  196  A    between atoms: _469  and  _470
REMARK  197  A    between atoms: _470  and  _471
REMARK  198  A    between atoms: _474  and  _476
REMARK  199  A    between atoms: _476  and  _477
REMARK  200  A    between atoms: _476  and  _479
REMARK  201  A    between atoms: _479  and  _480
REMARK  202  A    between atoms: _485  and  _486
REMARK  203  A    between atoms: _488  and  _490
REMARK  204  A    between atoms: _490  and  _491
REMARK  205  A    between atoms: _490  and  _493
REMARK  206  A    between atoms: _493  and  _494
REMARK  207  A    between atoms: _500  and  _502
REMARK  208  A    between atoms: _502  and  _503
REMARK  209  A    between atoms: _502  and  _505
REMARK  210  A    between atoms: _505  and  _506
REMARK  211  A    between atoms: _509  and  _511
REMARK  212  A    between atoms: _511  and  _512
REMARK  213  A    between atoms: _511  and  _514
REMARK  214  A    between atoms: _514  and  _515
REMARK  215  A    between atoms: _515  and  _516
REMARK  216  A    between atoms: _516  and  _518
REMARK  217  A    between atoms: _518  and  MG_609
REMARK  218  A    between atoms: _519  and  _521
REMARK  219  A    between atoms: _521  and  _522
REMARK  220  A    between atoms: _521  and  _524
REMARK  221  A    between atoms: _524  and  _525
REMARK  222  A    between atoms: _525  and  _526
REMARK  223  A    between atoms: _528  and  _530
REMARK  224  A    between atoms: _530  and  _531
REMARK  225  A    between atoms: _530  and  _533
REMARK  226  A    between atoms: _533  and  _534
REMARK  227  A    between atoms: _539  and  _541
REMARK  228  A    between atoms: _541  and  _542
REMARK  229  A    between atoms: _541  and  _544
REMARK  230  A    between atoms: _544  and  _545
REMARK  231  A    between atoms: _545  and  _546
REMARK  232  A    between atoms: _546  and  _547
REMARK  233  A    between atoms: _556  and  _558
REMARK  234  A    between atoms: _558  and  _559
REMARK  235  A    between atoms: _558  and  _561
REMARK  236  A    between atoms: _561  and  _562
REMARK  237  A    between atoms: _562  and  _563
REMARK  238  A    between atoms: _568  and  _570
REMARK  239  A    between atoms: _570  and  _571
REMARK  240  A    between atoms: _570  and  _573
REMARK  241  A    between atoms: _573  and  _574
REMARK  242  A    between atoms: _579  and  _581
REMARK  243  A    between atoms: _581  and  _582
REMARK  244  A    between atoms: _581  and  _584
REMARK  245  A    between atoms: _584  and  _585
REMARK  246  A    between atoms: _588  and  _590
REMARK  247  A    between atoms: _590  and  _591
REMARK  248  A    between atoms: _590  and  _593
REMARK  249  A    between atoms: _593  and  _594
REMARK  250  A    between atoms: _599  and  _601
REMARK  251  A    between atoms: _601  and  _602
REMARK  252  A    between atoms: _601  and  _604
REMARK  253  A    between atoms: _604  and  _605
REMARK  254  A    between atoms: _605  and  _606
REMARK                            x       y       z     vdW  Elec       q    Type
REMARK                         _______ _______ _______ _____ _____    ______ ____
ROOT
ATOM      1  O   HOH     1     -27.519 -14.636   2.265  0.00  0.00    +0.000 OA
ENDROOT
TORSDOF 0
REMARK  Name = ../refined-set-2016/3rv4/3rv4_pocket.pdb
REMARK  254 active torsions:
REMARK  status: ('A' for Active; 'I' for Inactive)
REMARK    1  A    between atoms: _1  and  _3
REMARK    2  A    between atoms: _3  and  _4
REMARK    3  A    between atoms: _3  and  _6
REMARK    4  A    between atoms: _6  and  _7
REMARK    5  A    between atoms: _7  and  _8
REMARK    6  A    between atoms: _11  and  _13
REMARK    7  A    between atoms: _13  and  _14
REMARK    8  A    between atoms: _13  and  _16
REMARK    9  A    between atoms: _16  and  _17
REMARK   10  A    between atoms: _17  and  _18
REMARK   11  A    between atoms: _18  and  _19
REMARK   12  A    between atoms: _19  and  _20
REMARK   13  A    between atoms: _24  and  _26
REMARK   14  A    between atoms: _26  and  _27
REMARK   15  A    between atoms: _26  and  _29
REMARK   16  A    between atoms: _29  and  _30
REMARK   17  A    between atoms: _33  and  _35
REMARK   18  A    between atoms: _35  and  _36
REMARK   19  A    between atoms: _35  and  _38
REMARK   20  A    between atoms: _42  and  _43
REMARK   21  A    between atoms: _49  and  _50
REMARK   22  A    between atoms: _55  and  _57
REMARK   23  A    between atoms: _57  and  _58
REMARK   24  A    between atoms: _57  and  _60
REMARK   25  A    between atoms: _63  and  _65
REMARK   26  A    between atoms: _65  and  _66
REMARK   27  A    between atoms: _65  and  _68
REMARK   28  A    between atoms: _68  and  _69
REMARK   29  A    between atoms: _72  and  _74
REMARK   30  A    between atoms: _74  and  _75
REMARK   31  A    between atoms: _74  and  _77
REMARK   32  A    between atoms: _77  and  _78
REMARK   33  A    between atoms: _81  and  _83
REMARK   34  A    between atoms: _83  and  _84
REMARK   35  A    between atoms: _83  and  _86
REMARK   36  A    between atoms: _86  and  _87
REMARK   37  A    between atoms: _87  and  _88
REMARK   38  A    between atoms: _88  and  _89
REMARK   39  A    between atoms: _89  and  _90
REMARK   40  A    between atoms: _94  and  _96
REMARK   41  A    between atoms: _96  and  _97
REMARK   42  A    between atoms: _100  and  _102
REMARK   43  A    between atoms: _102  and  _103
REMARK   44  A    between atoms: _102  and  _105
REMARK   45  A    between atoms: _105  and  _106
REMARK   46  A    between atoms: _108  and  _110
REMARK   47  A    between atoms: _110  and  _111
REMARK   48  A    between atoms: _113  and  _115
REMARK   49  A    between atoms: _115  and  _116
REMARK   50  A    between atoms: _118  and  _120
REMARK   51  A    between atoms: _120  and  _121
REMARK   52  A    between atoms: _123  and  _125
REMARK   53  A    between atoms: _125  and  _126
REMARK   54  A    between atoms: _128  and  _130
REMARK   55  A    between atoms: _130  and  _131
REMARK   56  A    between atoms: _133  and  _135
REMARK   57  A    between atoms: _135  and  _136
REMARK   58  A    between atoms: _135  and  _138
REMARK   59  A    between atoms: _138  and  _139
REMARK   60  A    between atoms: _139  and  _140
REMARK   61  A    between atoms: _140  and  _141
REMARK   62  A    between atoms: _150  and  _152
REMARK   63  A    between atoms: _152  and  _153
REMARK   64  A    between atoms: _155  and  _157
REMARK   65  A    between atoms: _157  and  _158
REMARK   66  A    between atoms: _157  and  _160
REMARK   67  A    between atoms: _160  and  _161
REMARK   68  A    between atoms: _161  and  _162
REMARK   69  A    between atoms: _164  and  _166
REMARK   70  A    between atoms: _166  and  _167
REMARK   71  A    between atoms: _166  and  _169
REMARK   72  A    between atoms: _172  and  _174
REMARK   73  A    between atoms: _174  and  _175
REMARK   74  A    between atoms: _174  and  _177
REMARK   75  A    between atoms: _177  and  _178
REMARK   76  A    between atoms: _184  and  _186
REMARK   77  A    between atoms: _186  and  _187
REMARK   78  A    between atoms: _186  and  _189
REMARK   79  A    between atoms: _189  and  _190
REMARK   80  A    between atoms: _195  and  _196
REMARK   81  A    between atoms: _198  and  _200
REMARK   82  A    between atoms: _200  and  _201
REMARK   83  A    between atoms: _200  and  _203
REMARK   84  A    between atoms: _203  and  _204
REMARK   85  A    between atoms: _204  and  _205
REMARK   86  A    between atoms: _207  and  _209
REMARK   87  A    between atoms: _209  and  _210
REMARK   88  A    between atoms: _209  and  _212
REMARK   89  A    between atoms: _212  and  _213
REMARK   90  A    between atoms: _213  and  _214
REMARK   91  A    between atoms: _217  and  _219
REMARK   92  A    between atoms: _219  and  _220
REMARK   93  A    between atoms: _219  and  _222
REMARK   94  A    between atoms: _222  and  _223
REMARK   95  A    between atoms: _223  and  _224
REMARK   96  A    between atoms: _224  and  _225
REMARK   97  A    between atoms: _225  and  _226
REMARK   98  A    between atoms: _230  and  _232
REMARK   99  A    between atoms: _232  and  _233
REMARK  100  A    between atoms: _232  and  _235
REMARK  101  A    between atoms: _235  and  _236
REMARK  102  A    between atoms: _241  and  _242
REMARK  103  A    between atoms: _244  and  _246
REMARK  104  A    between atoms: _246  and  _247
REMARK  105  A    between atoms: _246  and  _249
REMARK  106  A    between atoms: _249  and  _250
REMARK  107  A    between atoms: _253  and  _255
REMARK  108  A    between atoms: _255  and  _256
REMARK  109  A    between atoms: _255  and  _258
REMARK  110  A    between atoms: _258  and  _259
REMARK  111  A    between atoms: _259  and  _260
REMARK  112  A    between atoms: _263  and  _265
REMARK  113  A    between atoms: _265  and  _266
REMARK  114  A    between atoms: _265  and  _268
REMARK  115  A    between atoms: _268  and  _269
REMARK  116  A    between atoms: _275  and  _276
REMARK  117  A    between atoms: _281  and  _283
REMARK  118  A    between atoms: _283  and  _284
REMARK  119  A    between atoms: _283  and  _286
REMARK  120  A    between atoms: _286  and  _287
REMARK  121  A    between atoms: _287  and  _288
REMARK  122  A    between atoms: _288  and  _289
REMARK  123  A    between atoms: _298  and  _300
REMARK  124  A    between atoms: _300  and  _301
REMARK  125  A    between atoms: _300  and  _303
REMARK  126  A    between atoms: _303  and  _304
REMARK  127  A    between atoms: _309  and  _311
REMARK  128  A    between atoms: _311  and  _312
REMARK  129  A    between atoms: _311  and  _314
REMARK  130  A    between atoms: _317  and  _319
REMARK  131  A    between atoms: _319  and  _320
REMARK  132  A    between atoms: _319  and  _322
REMARK  133  A    between atoms: _322  and  _323
REMARK  134  A    between atoms: _323  and  _324
REMARK  135  A    between atoms: _327  and  _329
REMARK  136  A    between atoms: _329  and  _330
REMARK  137  A    between atoms: _329  and  _332
REMARK  138  A    between atoms: _334  and  _336
REMARK  139  A    between atoms: _336  and  _337
REMARK  140  A    between atoms: _336  and  _339
REMARK  141  A    between atoms: _339  and  _340
REMARK  142  A    between atoms: _342  and  _344
REMARK  143  A    between atoms: _344  and  _345
REMARK  144  A    between atoms: _344  and  _347
REMARK  145  A    between atoms: _347  and  _348
REMARK  146  A    between atoms: _348  and  _349
REMARK  147  A    between atoms: _351  and  _353
REMARK  148  A    between atoms: _353  and  _354
REMARK  149  A    between atoms: _353  and  _356
REMARK  150  A    between atoms: _356  and  _357
REMARK  151  A    between atoms: _357  and  _358
REMARK  152  A    between atoms: _363  and  _365
REMARK  153  A    between atoms: _365  and  _366
REMARK  154  A    between atoms: _365  and  _368
REMARK  155  A    between atoms: _368  and  _369
REMARK  156  A    between atoms: _369  and  _370
REMARK  157  A    between atoms: _370  and  _371
REMARK  158  A    between atoms: _380  and  _382
REMARK  159  A    between atoms: _382  and  _383
REMARK  160  A    between atoms: _382  and  _385
REMARK  161  A    between atoms: _385  and  _386
REMARK  162  A    between atoms: _386  and  _387
REMARK  163  A    between atoms: _387  and  _388
REMARK  164  A    between atoms: _397  and  _399
REMARK  165  A    between atoms: _399  and  _400
REMARK  166  A    between atoms: _399  and  _402
REMARK  167  A    between atoms: _402  and  _403
REMARK  168  A    between atoms: _408  and  _410
REMARK  169  A    between atoms: _410  and  _411
REMARK  170  A    between atoms: _410  and  _413
REMARK  171  A    between atoms: _413  and  _414
REMARK  172  A    between atoms: _414  and  _415
REMARK  173  A    between atoms: _420  and  _422
REMARK  174  A    between atoms: _422  and  _423
REMARK  175  A    between atoms: _422  and  _425
REMARK  176  A    between atoms: _425  and  _426
REMARK  177  A    between atoms: _426  and  _427
REMARK  178  A    between atoms: _427  and  _428
REMARK  179  A    between atoms: _428  and  _429
REMARK  180  A    between atoms: _433  and  _435
REMARK  181  A    between atoms: _435  and  _436
REMARK  182  A    between atoms: _435  and  _438
REMARK  183  A    between atoms: _438  and  _439
REMARK  184  A    between atoms: _439  and  _440
REMARK  185  A    between atoms: _443  and  _445
REMARK  186  A    between atoms: _445  and  _446
REMARK  187  A    between atoms: _445  and  _448
REMARK  188  A    between atoms: _448  and  _449
REMARK  189  A    between atoms: _455  and  _457
REMARK  190  A    between atoms: _457  and  _458
REMARK  191  A    between atoms: _457  and  _460
REMARK  192  A    between atoms: _460  and  _461
REMARK  193  A    between atoms: _464  and  _466
REMARK  194  A    between atoms: _466  and  _467
REMARK  195  A    between atoms: _466  and  _469
REMARK  196  A    between atoms: _469  and  _470
REMARK  197  A    between atoms: _470  and  _471
REMARK  198  A    between atoms: _474  and  _476
REMARK  199  A    between atoms: _476  and  _477
REMARK  200  A    between atoms: _476  and  _479
REMARK  201  A    between atoms: _479  and  _480
REMARK  202  A    between atoms: _485  and  _486
REMARK  203  A    between atoms: _488  and  _490
REMARK  204  A    between atoms: _490  and  _491
REMARK  205  A    between atoms: _490  and  _493
REMARK  206  A    between atoms: _493  and  _494
REMARK  207  A    between atoms: _500  and  _502
REMARK  208  A    between atoms: _502  and  _503
REMARK  209  A    between atoms: _502  and  _505
REMARK  210  A    between atoms: _505  and  _506
REMARK  211  A    between atoms: _509  and  _511
REMARK  212  A    between atoms: _511  and  _512
REMARK  213  A    between atoms: _511  and  _514
REMARK  214  A    between atoms: _514  and  _515
REMARK  215  A    between atoms: _515  and  _516
REMARK  216  A    between atoms: _516  and  _518
REMARK  217  A    between atoms: _518  and  MG_609
REMARK  218  A    between atoms: _519  and  _521
REMARK  219  A    between atoms: _521  and  _522
REMARK  220  A    between atoms: _521  and  _524
REMARK  221  A    between atoms: _524  and  _525
REMARK  222  A    between atoms: _525  and  _526
REMARK  223  A    between atoms: _528  and  _530
REMARK  224  A    between atoms: _530  and  _531
REMARK  225  A    between atoms: _530  and  _533
REMARK  226  A    between atoms: _533  and  _534
REMARK  227  A    between atoms: _539  and  _541
REMARK  228  A    between atoms: _541  and  _542
REMARK  229  A    between atoms: _541  and  _544
REMARK  230  A    between atoms: _544  and  _545
REMARK  231  A    between atoms: _545  and  _546
REMARK  232  A    between atoms: _546  and  _547
REMARK  233  A    between atoms: _556  and  _558
REMARK  234  A    between atoms: _558  and  _559
REMARK  235  A    between atoms: _558  and  _561
REMARK  236  A    between atoms: _561  and  _562
REMARK  237  A    between atoms: _562  and  _563
REMARK  238  A    between atoms: _568  and  _570
REMARK  239  A    between atoms: _570  and  _571
REMARK  240  A    between atoms: _570  and  _573
REMARK  241  A    between atoms: _573  and  _574
REMARK  242  A    between atoms: _579  and  _581
REMARK  243  A    between atoms: _581  and  _582
REMARK  244  A    between atoms: _581  and  _584
REMARK  245  A    between atoms: _584  and  _585
REMARK  246  A    between atoms: _588  and  _590
REMARK  247  A    between atoms: _590  and  _591
REMARK  248  A    between atoms: _590  and  _593
REMARK  249  A    between atoms: _593  and  _594
REMARK  250  A    between atoms: _599  and  _601
REMARK  251  A    between atoms: _601  and  _602
REMARK  252  A    between atoms: _601  and  _604
REMARK  253  A    between atoms: _604  and  _605
REMARK  254  A    between atoms: _605  and  _606
REMARK                            x       y       z     vdW  Elec       q    Type
REMARK                         _______ _______ _______ _____ _____    ______ ____
ROOT
ATOM      1  O   HOH     1     -30.712 -11.307  19.383  0.00  0.00    +0.000 OA
ENDROOT
TORSDOF 0
