REMARK  Name = ../refined-set-2016/4ijh/4ijh_pocket.pdb
REMARK  118 active torsions:
REMARK  status: ('A' for Active; 'I' for Inactive)
REMARK    1  A    between atoms: _1  and  _3
REMARK    2  A    between atoms: _3  and  _4
REMARK    3  A    between atoms: _3  and  _6
REMARK    4  A    between atoms: _6  and  _7
REMARK    5  A    between atoms: _7  and  _8
REMARK    6  A    between atoms: _8  and  _9
REMARK    7  A    between atoms: _19  and  _20
REMARK    8  A    between atoms: _25  and  _27
REMARK    9  A    between atoms: _27  and  _28
REMARK   10  A    between atoms: _27  and  _30
REMARK   11  A    between atoms: _30  and  _31
REMARK   12  A    between atoms: _34  and  _36
REMARK   13  A    between atoms: _36  and  _37
REMARK   14  A    between atoms: _36  and  _39
REMARK   15  A    between atoms: _39  and  _40
REMARK   16  A    between atoms: _43  and  _45
REMARK   17  A    between atoms: _45  and  _46
REMARK   18  A    between atoms: _45  and  _48
REMARK   19  A    between atoms: _48  and  _49
REMARK   20  A    between atoms: _52  and  _54
REMARK   21  A    between atoms: _54  and  _55
REMARK   22  A    between atoms: _57  and  _59
REMARK   23  A    between atoms: _59  and  _60
REMARK   24  A    between atoms: _59  and  _62
REMARK   25  A    between atoms: _62  and  _63
REMARK   26  A    between atoms: _63  and  _64
REMARK   27  A    between atoms: _64  and  _65
REMARK   28  A    between atoms: _74  and  _76
REMARK   29  A    between atoms: _76  and  _77
REMARK   30  A    between atoms: _76  and  _79
REMARK   31  A    between atoms: _79  and  _80
REMARK   32  A    between atoms: _85  and  _86
REMARK   33  A    between atoms: _88  and  _90
REMARK   34  A    between atoms: _90  and  _91
REMARK   35  A    between atoms: _90  and  _93
REMARK   36  A    between atoms: _93  and  _94
REMARK   37  A    between atoms: _94  and  _95
REMARK   38  A    between atoms: _95  and  _96
REMARK   39  A    between atoms: _105  and  _107
REMARK   40  A    between atoms: _107  and  _108
REMARK   41  A    between atoms: _107  and  _110
REMARK   42  A    between atoms: _110  and  _111
REMARK   43  A    between atoms: _114  and  _116
REMARK   44  A    between atoms: _116  and  _117
REMARK   45  A    between atoms: _116  and  _119
REMARK   46  A    between atoms: _119  and  _120
REMARK   47  A    between atoms: _123  and  _125
REMARK   48  A    between atoms: _125  and  _126
REMARK   49  A    between atoms: _125  and  _128
REMARK   50  A    between atoms: _128  and  _129
REMARK   51  A    between atoms: _132  and  _134
REMARK   52  A    between atoms: _134  and  _135
REMARK   53  A    between atoms: _134  and  _137
REMARK   54  A    between atoms: _137  and  _138
REMARK   55  A    between atoms: _140  and  _142
REMARK   56  A    between atoms: _142  and  _143
REMARK   57  A    between atoms: _142  and  _145
REMARK   58  A    between atoms: _145  and  _146
REMARK   59  A    between atoms: _148  and  _150
REMARK   60  A    between atoms: _150  and  _151
REMARK   61  A    between atoms: _150  and  _153
REMARK   62  A    between atoms: _153  and  _154
REMARK   63  A    between atoms: _160  and  _162
REMARK   64  A    between atoms: _162  and  _163
REMARK   65  A    between atoms: _162  and  _165
REMARK   66  A    between atoms: _165  and  _166
REMARK   67  A    between atoms: _166  and  _167
REMARK   68  A    between atoms: _169  and  _171
REMARK   69  A    between atoms: _171  and  _172
REMARK   70  A    between atoms: _171  and  _174
REMARK   71  A    between atoms: _174  and  _175
REMARK   72  A    between atoms: _178  and  _180
REMARK   73  A    between atoms: _180  and  _181
REMARK   74  A    between atoms: _180  and  _183
REMARK   75  A    between atoms: _183  and  _184
REMARK   76  A    between atoms: _189  and  _191
REMARK   77  A    between atoms: _191  and  _192
REMARK   78  A    between atoms: _191  and  _194
REMARK   79  A    between atoms: _194  and  _195
REMARK   80  A    between atoms: _198  and  _200
REMARK   81  A    between atoms: _200  and  _201
REMARK   82  A    between atoms: _200  and  _203
REMARK   83  A    between atoms: _203  and  _204
REMARK   84  A    between atoms: _207  and  _209
REMARK   85  A    between atoms: _209  and  _210
REMARK   86  A    between atoms: _209  and  _212
REMARK   87  A    between atoms: _212  and  _213
REMARK   88  A    between atoms: _213  and  _214
REMARK   89  A    between atoms: _214  and  _215
REMARK   90  A    between atoms: _215  and  _216
REMARK   91  A    between atoms: _220  and  _222
REMARK   92  A    between atoms: _222  and  _223
REMARK   93  A    between atoms: _222  and  _225
REMARK   94  A    between atoms: _225  and  _226
REMARK   95  A    between atoms: _229  and  _231
REMARK   96  A    between atoms: _231  and  _232
REMARK   97  A    between atoms: _234  and  _236
REMARK   98  A    between atoms: _236  and  _237
REMARK   99  A    between atoms: _236  and  _239
REMARK  100  A    between atoms: _239  and  _240
REMARK  101  A    between atoms: _240  and  _241
REMARK  102  A    between atoms: _241  and  _242
REMARK  103  A    between atoms: _251  and  _253
REMARK  104  A    between atoms: _253  and  _254
REMARK  105  A    between atoms: _253  and  _256
REMARK  106  A    between atoms: _256  and  _257
REMARK  107  A    between atoms: _257  and  _258
REMARK  108  A    between atoms: _258  and  _259
REMARK  109  A    between atoms: _268  and  _270
REMARK  110  A    between atoms: _270  and  _271
REMARK  111  A    between atoms: _270  and  _273
REMARK  112  A    between atoms: _276  and  _278
REMARK  113  A    between atoms: _278  and  _279
REMARK  114  A    between atoms: _278  and  _281
REMARK  115  A    between atoms: _284  and  _286
REMARK  116  A    between atoms: _286  and  _287
REMARK  117  A    between atoms: _286  and  _289
REMARK  118  A    between atoms: _289  and  _290
REMARK                            x       y       z     vdW  Elec       q    Type
REMARK                         _______ _______ _______ _____ _____    ______ ____
ROOT
ATOM      1  CA  ILE A   3      14.553 -17.856  21.437  0.00  0.00    +0.149 C 
ENDROOT
BRANCH   1   2
ATOM      2  C   ILE A   3      14.137 -19.033  22.328  0.00  0.00    +0.241 C 
ATOM      3  N   THR A   4      14.564 -18.994  23.587  0.00  0.00    -0.295 N 
ATOM      4  H   THR A   4      15.099 -18.163  23.911  0.00  0.00    +0.150 HD
ATOM      5  O   ILE A   3      13.446 -19.952  21.901  0.00  0.00    -0.273 OA
BRANCH   3   6
ATOM      6  CA  THR A   4      14.308 -20.076  24.527  0.00  0.00    +0.176 C 
BRANCH   6   7
ATOM      7  C   THR A   4      12.907 -19.956  25.105  0.00  0.00    +0.243 C 
ATOM      8  O   THR A   4      12.639 -18.999  25.849  0.00  0.00    -0.273 OA
ATOM      9  N   THR A   5      12.016 -20.897  24.792  0.00  0.00    -0.295 N 
ATOM     10  H   THR A   5      12.304 -21.735  24.247  0.00  0.00    +0.150 HD
BRANCH   9  11
ATOM     11  CA  THR A   5      10.622 -20.735  25.227  0.00  0.00    +0.176 C 
BRANCH  11  12
ATOM     12  C   THR A   5      10.060 -21.862  26.096  0.00  0.00    +0.243 C 
ATOM     13  O   THR A   5       8.879 -21.850  26.453  0.00  0.00    -0.273 OA
ATOM     14  N   GLY A   6      10.890 -22.840  26.424  0.00  0.00    -0.296 N 
ATOM     15  H   GLY A   6      11.879 -22.804  26.104  0.00  0.00    +0.150 HD
BRANCH  14  16
ATOM     16  CA  GLY A   6      10.432 -23.968  27.230  0.00  0.00    +0.163 C 
BRANCH  16  17
ATOM     17  C   GLY A   6       9.276 -24.687  26.563  0.00  0.00    +0.229 C 
ATOM     18  O   GLY A   6       9.297 -24.931  25.353  0.00  0.00    -0.286 OA
ENDBRANCH  16  17
ENDBRANCH  14  16
ENDBRANCH  11  12
BRANCH  11  19
ATOM     19  CB  THR A   5       9.694 -20.606  24.019  0.00  0.00    +0.137 C 
ATOM     20  CG2 THR A   5      10.110 -19.481  23.127  0.00  0.00    +0.034 C 
BRANCH  19  21
ATOM     21  OG1 THR A   5       9.740 -21.821  23.288  0.00  0.00    -0.382 OA
ATOM     22  HG1 THR A   5      10.668 -21.989  22.987  0.00  0.00    +0.210 HD
ENDBRANCH  19  21
ENDBRANCH  11  19
ENDBRANCH   9  11
ENDBRANCH   6   7
BRANCH   6  23
ATOM     23  CB  THR A   4      15.310 -20.016  25.676  0.00  0.00    +0.137 C 
ATOM     24  CG2 THR A   4      15.146 -21.238  26.562  0.00  0.00    +0.034 C 
BRANCH  23  25
ATOM     25  OG1 THR A   4      16.652 -20.003  25.147  0.00  0.00    -0.382 OA
ATOM     26  HG1 THR A   4      16.769 -19.210  24.566  0.00  0.00    +0.210 HD
ENDBRANCH  23  25
ENDBRANCH   6  23
ENDBRANCH   3   6
ENDBRANCH   1   2
BRANCH   1  28
ATOM     27  C   PRO A   2      15.157 -18.467  19.171  0.00  0.00    +0.241 C 
ATOM     28  N   ILE A   3      14.210 -18.151  20.052  0.00  0.00    -0.297 N 
ATOM     29  H   ILE A   3      13.216 -18.114  19.749  0.00  0.00    +0.150 HD
ATOM     30  O   PRO A   2      16.359 -18.341  19.394  0.00  0.00    -0.273 OA
BRANCH  27  33
ATOM     31  C   ARG A   1      15.807 -17.635  16.277  0.00  0.00    +0.241 C 
ATOM     32  N   PRO A   2      15.690 -18.848  16.810  0.00  0.00    -0.272 N 
ATOM     33  CA  PRO A   2      14.698 -19.065  17.860  0.00  0.00    +0.152 C 
ATOM     34  CB  PRO A   2      14.631 -20.595  17.973  0.00  0.00    +0.031 C 
ATOM     35  CG  PRO A   2      15.467 -21.137  16.832  0.00  0.00    +0.024 C 
ATOM     36  CD  PRO A   2      16.427 -20.079  16.497  0.00  0.00    +0.094 C 
ATOM     37  O   ARG A   1      15.061 -16.733  16.567  0.00  0.00    -0.273 OA
BRANCH  31  38
ATOM     38  CA  ARG A   1      16.939 -17.384  15.313  0.00  0.00    +0.145 C 
BRANCH  38  39
ATOM     39  N   ARG A   1      16.570 -16.310  14.395  0.00  0.00    -0.238 NA
ATOM     40  H   ARG A   1      15.963 -15.530  14.718  0.00  0.00    +0.142 HD
ENDBRANCH  38  39
BRANCH  38  41
ATOM     41  CB  ARG A   1      18.178 -17.020  16.096  0.00  0.00    +0.030 C 
BRANCH  41  42
ATOM     42  CG  ARG A   1      17.945 -15.954  17.113  0.00  0.00    +0.045 C 
BRANCH  42  43
ATOM     43  CD  ARG A   1      19.204 -15.762  17.964  0.00  0.00    +0.174 C 
BRANCH  43  44
ATOM     44  NE  ARG A   1      19.000 -14.796  19.037  0.00  0.00    -0.265 N 
ATOM     45  CZ  ARG A   1      18.583 -15.089  20.264  0.00  0.00    +0.342 C 
ATOM     46  NH2 ARG A   1      18.443 -14.089  21.136  0.00  0.00    -0.292 N 
ATOM     47 HH21 ARG A   1      18.118 -14.285  22.104  0.00  0.00    +0.255 HD
ATOM     48 HH22 ARG A   1      18.658 -13.113  20.847  0.00  0.00    +0.255 HD
ATOM     49  NH1 ARG A   1      18.280 -16.347  20.627  0.00  0.00    -0.292 N 
ATOM     50 HH11 ARG A   1      17.956 -16.545  21.595  0.00  0.00    +0.255 HD
ATOM     51 HH12 ARG A   1      18.369 -17.122  19.940  0.00  0.00    +0.255 HD
ATOM     52  HE  ARG A   1      19.197 -13.797  18.825  0.00  0.00    +0.259 HD
ENDBRANCH  43  44
ENDBRANCH  42  43
ENDBRANCH  41  42
ENDBRANCH  38  41
ENDBRANCH  31  38
ENDBRANCH  27  33
ENDBRANCH   1  28
BRANCH   1  53
ATOM     53  CB  ILE A   3      13.906 -16.556  21.936  0.00  0.00    +0.027 C 
ATOM     54  CG2 ILE A   3      14.418 -15.368  21.130  0.00  0.00    +0.002 C 
BRANCH  53  55
ATOM     55  CG1 ILE A   3      12.385 -16.613  21.848  0.00  0.00    +0.002 C 
ATOM     56  CD1 ILE A   3      11.701 -15.431  22.561  0.00  0.00    +0.000 C 
ENDBRANCH  53  55
ENDBRANCH   1  53
TORSDOF 21
REMARK  Name = ../refined-set-2016/4ijh/4ijh_pocket.pdb
REMARK  118 active torsions:
REMARK  status: ('A' for Active; 'I' for Inactive)
REMARK    1  A    between atoms: _1  and  _3
REMARK    2  A    between atoms: _3  and  _4
REMARK    3  A    between atoms: _3  and  _6
REMARK    4  A    between atoms: _6  and  _7
REMARK    5  A    between atoms: _7  and  _8
REMARK    6  A    between atoms: _8  and  _9
REMARK    7  A    between atoms: _19  and  _20
REMARK    8  A    between atoms: _25  and  _27
REMARK    9  A    between atoms: _27  and  _28
REMARK   10  A    between atoms: _27  and  _30
REMARK   11  A    between atoms: _30  and  _31
REMARK   12  A    between atoms: _34  and  _36
REMARK   13  A    between atoms: _36  and  _37
REMARK   14  A    between atoms: _36  and  _39
REMARK   15  A    between atoms: _39  and  _40
REMARK   16  A    between atoms: _43  and  _45
REMARK   17  A    between atoms: _45  and  _46
REMARK   18  A    between atoms: _45  and  _48
REMARK   19  A    between atoms: _48  and  _49
REMARK   20  A    between atoms: _52  and  _54
REMARK   21  A    between atoms: _54  and  _55
REMARK   22  A    between atoms: _57  and  _59
REMARK   23  A    between atoms: _59  and  _60
REMARK   24  A    between atoms: _59  and  _62
REMARK   25  A    between atoms: _62  and  _63
REMARK   26  A    between atoms: _63  and  _64
REMARK   27  A    between atoms: _64  and  _65
REMARK   28  A    between atoms: _74  and  _76
REMARK   29  A    between atoms: _76  and  _77
REMARK   30  A    between atoms: _76  and  _79
REMARK   31  A    between atoms: _79  and  _80
REMARK   32  A    between atoms: _85  and  _86
REMARK   33  A    between atoms: _88  and  _90
REMARK   34  A    between atoms: _90  and  _91
REMARK   35  A    between atoms: _90  and  _93
REMARK   36  A    between atoms: _93  and  _94
REMARK   37  A    between atoms: _94  and  _95
REMARK   38  A    between atoms: _95  and  _96
REMARK   39  A    between atoms: _105  and  _107
REMARK   40  A    between atoms: _107  and  _108
REMARK   41  A    between atoms: _107  and  _110
REMARK   42  A    between atoms: _110  and  _111
REMARK   43  A    between atoms: _114  and  _116
REMARK   44  A    between atoms: _116  and  _117
REMARK   45  A    between atoms: _116  and  _119
REMARK   46  A    between atoms: _119  and  _120
REMARK   47  A    between atoms: _123  and  _125
REMARK   48  A    between atoms: _125  and  _126
REMARK   49  A    between atoms: _125  and  _128
REMARK   50  A    between atoms: _128  and  _129
REMARK   51  A    between atoms: _132  and  _134
REMARK   52  A    between atoms: _134  and  _135
REMARK   53  A    between atoms: _134  and  _137
REMARK   54  A    between atoms: _137  and  _138
REMARK   55  A    between atoms: _140  and  _142
REMARK   56  A    between atoms: _142  and  _143
REMARK   57  A    between atoms: _142  and  _145
REMARK   58  A    between atoms: _145  and  _146
REMARK   59  A    between atoms: _148  and  _150
REMARK   60  A    between atoms: _150  and  _151
REMARK   61  A    between atoms: _150  and  _153
REMARK   62  A    between atoms: _153  and  _154
REMARK   63  A    between atoms: _160  and  _162
REMARK   64  A    between atoms: _162  and  _163
REMARK   65  A    between atoms: _162  and  _165
REMARK   66  A    between atoms: _165  and  _166
REMARK   67  A    between atoms: _166  and  _167
REMARK   68  A    between atoms: _169  and  _171
REMARK   69  A    between atoms: _171  and  _172
REMARK   70  A    between atoms: _171  and  _174
REMARK   71  A    between atoms: _174  and  _175
REMARK   72  A    between atoms: _178  and  _180
REMARK   73  A    between atoms: _180  and  _181
REMARK   74  A    between atoms: _180  and  _183
REMARK   75  A    between atoms: _183  and  _184
REMARK   76  A    between atoms: _189  and  _191
REMARK   77  A    between atoms: _191  and  _192
REMARK   78  A    between atoms: _191  and  _194
REMARK   79  A    between atoms: _194  and  _195
REMARK   80  A    between atoms: _198  and  _200
REMARK   81  A    between atoms: _200  and  _201
REMARK   82  A    between atoms: _200  and  _203
REMARK   83  A    between atoms: _203  and  _204
REMARK   84  A    between atoms: _207  and  _209
REMARK   85  A    between atoms: _209  and  _210
REMARK   86  A    between atoms: _209  and  _212
REMARK   87  A    between atoms: _212  and  _213
REMARK   88  A    between atoms: _213  and  _214
REMARK   89  A    between atoms: _214  and  _215
REMARK   90  A    between atoms: _215  and  _216
REMARK   91  A    between atoms: _220  and  _222
REMARK   92  A    between atoms: _222  and  _223
REMARK   93  A    between atoms: _222  and  _225
REMARK   94  A    between atoms: _225  and  _226
REMARK   95  A    between atoms: _229  and  _231
REMARK   96  A    between atoms: _231  and  _232
REMARK   97  A    between atoms: _234  and  _236
REMARK   98  A    between atoms: _236  and  _237
REMARK   99  A    between atoms: _236  and  _239
REMARK  100  A    between atoms: _239  and  _240
REMARK  101  A    between atoms: _240  and  _241
REMARK  102  A    between atoms: _241  and  _242
REMARK  103  A    between atoms: _251  and  _253
REMARK  104  A    between atoms: _253  and  _254
REMARK  105  A    between atoms: _253  and  _256
REMARK  106  A    between atoms: _256  and  _257
REMARK  107  A    between atoms: _257  and  _258
REMARK  108  A    between atoms: _258  and  _259
REMARK  109  A    between atoms: _268  and  _270
REMARK  110  A    between atoms: _270  and  _271
REMARK  111  A    between atoms: _270  and  _273
REMARK  112  A    between atoms: _276  and  _278
REMARK  113  A    between atoms: _278  and  _279
REMARK  114  A    between atoms: _278  and  _281
REMARK  115  A    between atoms: _284  and  _286
REMARK  116  A    between atoms: _286  and  _287
REMARK  117  A    between atoms: _286  and  _289
REMARK  118  A    between atoms: _289  and  _290
REMARK                            x       y       z     vdW  Elec       q    Type
REMARK                         _______ _______ _______ _____ _____    ______ ____
ROOT
ATOM      1  C   TYR A   2      11.833 -14.964  16.422  0.00  0.00    +0.241 C 
ATOM      2  N   ARG A   3      13.097 -14.626  16.643  0.00  0.00    -0.297 N 
ATOM      3  H   ARG A   3      13.782 -15.395  16.791  0.00  0.00    +0.150 HD
ATOM      4  O   TYR A   2      10.932 -14.152  16.317  0.00  0.00    -0.273 OA
ENDROOT
BRANCH   2   5
ATOM      5  CA  ARG A   3      13.594 -13.269  16.693  0.00  0.00    +0.149 C 
BRANCH   5   6
ATOM      6  C   ARG A   3      14.392 -12.959  15.431  0.00  0.00    +0.241 C 
ATOM      7  N   LEU A   4      14.277 -11.736  14.942  0.00  0.00    -0.297 N 
ATOM      8  H   LEU A   4      13.748 -11.015  15.473  0.00  0.00    +0.150 HD
ATOM      9  O   ARG A   3      15.108 -13.807  14.902  0.00  0.00    -0.273 OA
BRANCH   7  10
ATOM     10  CA  LEU A   4      14.887 -11.392  13.663  0.00  0.00    +0.149 C 
BRANCH  10  11
ATOM     11  C   LEU A   4      15.751 -10.165  13.803  0.00  0.00    +0.241 C 
ATOM     12  O   LEU A   4      15.404  -9.200  14.525  0.00  0.00    -0.273 OA
ATOM     13  N   LEU A   5      16.880 -10.212  13.104  0.00  0.00    -0.298 N 
ATOM     14  H   LEU A   5      17.193 -11.130  12.728  0.00  0.00    +0.150 HD
BRANCH  13  15
ATOM     15  CA  LEU A   5      17.693  -9.047  12.842  0.00  0.00    +0.137 C 
BRANCH  15  16
ATOM     16  C   LEU A   5      17.282  -8.553  11.462  0.00  0.00    +0.227 C 
ATOM     17  O   LEU A   5      17.466  -9.276  10.473  0.00  0.00    -0.286 OA
ENDBRANCH  15  16
BRANCH  15  18
ATOM     18  CB  LEU A   5      19.165  -9.482  12.837  0.00  0.00    +0.028 C 
BRANCH  18  19
ATOM     19  CG  LEU A   5      20.202  -8.395  12.530  0.00  0.00    +0.002 C 
ATOM     20  CD2 LEU A   5      20.171  -7.301  13.605  0.00  0.00    +0.000 C 
ATOM     21  CD1 LEU A   5      21.606  -8.999  12.386  0.00  0.00    +0.000 C 
ENDBRANCH  18  19
ENDBRANCH  15  18
ENDBRANCH  13  15
ENDBRANCH  10  11
BRANCH  10  22
ATOM     22  CB  LEU A   4      13.836 -11.094  12.586  0.00  0.00    +0.029 C 
BRANCH  22  23
ATOM     23  CG  LEU A   4      12.830 -12.183  12.274  0.00  0.00    +0.002 C 
ATOM     24  CD2 LEU A   4      11.640 -11.950  13.212  0.00  0.00    +0.000 C 
ATOM     25  CD1 LEU A   4      12.348 -12.149  10.827  0.00  0.00    +0.000 C 
ENDBRANCH  22  23
ENDBRANCH  10  22
ENDBRANCH   7  10
ENDBRANCH   5   6
BRANCH   5  26
ATOM     26  CB  ARG A   3      14.469 -13.153  17.936  0.00  0.00    +0.033 C 
BRANCH  26  27
ATOM     27  CG  ARG A   3      15.114 -11.806  18.161  0.00  0.00    +0.045 C 
BRANCH  27  28
ATOM     28  CD  ARG A   3      15.828 -11.751  19.496  0.00  0.00    +0.174 C 
BRANCH  28  29
ATOM     29  NE  ARG A   3      16.467 -10.463  19.689  0.00  0.00    -0.265 N 
ATOM     30  CZ  ARG A   3      17.074 -10.107  20.799  0.00  0.00    +0.342 C 
ATOM     31  NH2 ARG A   3      17.084 -10.951  21.821  0.00  0.00    -0.292 N 
ATOM     32 HH21 ARG A   3      17.559 -10.688  22.708  0.00  0.00    +0.255 HD
ATOM     33 HH22 ARG A   3      16.617 -11.876  21.736  0.00  0.00    +0.255 HD
ATOM     34  NH1 ARG A   3      17.620  -8.900  20.882  0.00  0.00    -0.292 N 
ATOM     35 HH11 ARG A   3      18.103  -8.607  21.755  0.00  0.00    +0.255 HD
ATOM     36 HH12 ARG A   3      17.565  -8.248  20.074  0.00  0.00    +0.255 HD
ATOM     37  HE  ARG A   3      16.443  -9.782  18.903  0.00  0.00    +0.259 HD
ENDBRANCH  28  29
ENDBRANCH  27  28
ENDBRANCH  26  27
ENDBRANCH   5  26
ENDBRANCH   2   5
BRANCH   1  38
ATOM     38  CA  TYR A   2      11.574 -16.449  16.272  0.00  0.00    +0.153 C 
BRANCH  38  41
ATOM     39  C   ARG A   1      10.564 -17.700  18.112  0.00  0.00    +0.238 C 
ATOM     40  O   ARG A   1      11.660 -18.115  18.527  0.00  0.00    -0.274 OA
ATOM     41  N   TYR A   2      10.430 -16.875  17.072  0.00  0.00    -0.297 N 
ATOM     42  H   TYR A   2       9.482 -16.525  16.824  0.00  0.00    +0.150 HD
BRANCH  39  43
ATOM     43  CA  ARG A   1       9.275 -18.147  18.759  0.00  0.00    +0.145 C 
BRANCH  43  44
ATOM     44  N   ARG A   1       9.429 -19.533  19.155  0.00  0.00    -0.238 NA
ATOM     45  H   ARG A   1      10.329 -19.837  19.579  0.00  0.00    +0.142 HD
ENDBRANCH  43  44
BRANCH  43  46
ATOM     46  CB  ARG A   1       8.940 -17.286  19.985  0.00  0.00    +0.030 C 
BRANCH  46  47
ATOM     47  CG  ARG A   1       7.571 -17.588  20.632  0.00  0.00    +0.045 C 
BRANCH  47  48
ATOM     48  CD  ARG A   1       6.384 -17.442  19.704  0.00  0.00    +0.174 C 
BRANCH  48  49
ATOM     49  NE  ARG A   1       6.264 -16.086  19.157  0.00  0.00    -0.265 N 
ATOM     50  CZ  ARG A   1       5.551 -15.105  19.696  0.00  0.00    +0.342 C 
ATOM     51  NH2 ARG A   1       4.879 -15.298  20.806  0.00  0.00    -0.292 N 
ATOM     52 HH21 ARG A   1       4.902 -16.227  21.273  0.00  0.00    +0.255 HD
ATOM     53 HH22 ARG A   1       4.324 -14.522  21.219  0.00  0.00    +0.255 HD
ATOM     54  NH1 ARG A   1       5.498 -13.918  19.102  0.00  0.00    -0.292 N 
ATOM     55 HH11 ARG A   1       4.939 -13.149  19.525  0.00  0.00    +0.255 HD
ATOM     56 HH12 ARG A   1       6.015 -13.757  18.214  0.00  0.00    +0.255 HD
ATOM     57  HE  ARG A   1       6.778 -15.877  18.278  0.00  0.00    +0.259 HD
ENDBRANCH  48  49
ENDBRANCH  47  48
ENDBRANCH  46  47
ENDBRANCH  43  46
ENDBRANCH  39  43
ENDBRANCH  38  41
BRANCH  38  58
ATOM     58  CB  TYR A   2      11.378 -16.807  14.776  0.00  0.00    +0.055 C 
BRANCH  58  59
ATOM     59  CG  TYR A   2      11.227 -18.264  14.552  0.00  0.00    -0.020 A 
ATOM     60  CD2 TYR A   2       9.969 -18.837  14.453  0.00  0.00    -0.001 A 
ATOM     61  CE2 TYR A   2       9.815 -20.202  14.263  0.00  0.00    +0.036 A 
ATOM     62  CZ  TYR A   2      10.938 -20.994  14.141  0.00  0.00    +0.134 A 
ATOM     63  CE1 TYR A   2      12.193 -20.448  14.207  0.00  0.00    +0.036 A 
ATOM     64  CD1 TYR A   2      12.339 -19.074  14.412  0.00  0.00    -0.001 A 
BRANCH  62  65
ATOM     65  OH  TYR A   2      10.797 -22.348  13.938  0.00  0.00    -0.506 OA
ATOM     66  HH  TYR A   2      11.692 -22.766  13.873  0.00  0.00    +0.292 HD
ENDBRANCH  62  65
ENDBRANCH  58  59
ENDBRANCH  38  58
ENDBRANCH   1  38
TORSDOF 25
REMARK  Name = ../refined-set-2016/4ijh/4ijh_pocket.pdb
REMARK  118 active torsions:
REMARK  status: ('A' for Active; 'I' for Inactive)
REMARK    1  A    between atoms: _1  and  _3
REMARK    2  A    between atoms: _3  and  _4
REMARK    3  A    between atoms: _3  and  _6
REMARK    4  A    between atoms: _6  and  _7
REMARK    5  A    between atoms: _7  and  _8
REMARK    6  A    between atoms: _8  and  _9
REMARK    7  A    between atoms: _19  and  _20
REMARK    8  A    between atoms: _25  and  _27
REMARK    9  A    between atoms: _27  and  _28
REMARK   10  A    between atoms: _27  and  _30
REMARK   11  A    between atoms: _30  and  _31
REMARK   12  A    between atoms: _34  and  _36
REMARK   13  A    between atoms: _36  and  _37
REMARK   14  A    between atoms: _36  and  _39
REMARK   15  A    between atoms: _39  and  _40
REMARK   16  A    between atoms: _43  and  _45
REMARK   17  A    between atoms: _45  and  _46
REMARK   18  A    between atoms: _45  and  _48
REMARK   19  A    between atoms: _48  and  _49
REMARK   20  A    between atoms: _52  and  _54
REMARK   21  A    between atoms: _54  and  _55
REMARK   22  A    between atoms: _57  and  _59
REMARK   23  A    between atoms: _59  and  _60
REMARK   24  A    between atoms: _59  and  _62
REMARK   25  A    between atoms: _62  and  _63
REMARK   26  A    between atoms: _63  and  _64
REMARK   27  A    between atoms: _64  and  _65
REMARK   28  A    between atoms: _74  and  _76
REMARK   29  A    between atoms: _76  and  _77
REMARK   30  A    between atoms: _76  and  _79
REMARK   31  A    between atoms: _79  and  _80
REMARK   32  A    between atoms: _85  and  _86
REMARK   33  A    between atoms: _88  and  _90
REMARK   34  A    between atoms: _90  and  _91
REMARK   35  A    between atoms: _90  and  _93
REMARK   36  A    between atoms: _93  and  _94
REMARK   37  A    between atoms: _94  and  _95
REMARK   38  A    between atoms: _95  and  _96
REMARK   39  A    between atoms: _105  and  _107
REMARK   40  A    between atoms: _107  and  _108
REMARK   41  A    between atoms: _107  and  _110
REMARK   42  A    between atoms: _110  and  _111
REMARK   43  A    between atoms: _114  and  _116
REMARK   44  A    between atoms: _116  and  _117
REMARK   45  A    between atoms: _116  and  _119
REMARK   46  A    between atoms: _119  and  _120
REMARK   47  A    between atoms: _123  and  _125
REMARK   48  A    between atoms: _125  and  _126
REMARK   49  A    between atoms: _125  and  _128
REMARK   50  A    between atoms: _128  and  _129
REMARK   51  A    between atoms: _132  and  _134
REMARK   52  A    between atoms: _134  and  _135
REMARK   53  A    between atoms: _134  and  _137
REMARK   54  A    between atoms: _137  and  _138
REMARK   55  A    between atoms: _140  and  _142
REMARK   56  A    between atoms: _142  and  _143
REMARK   57  A    between atoms: _142  and  _145
REMARK   58  A    between atoms: _145  and  _146
REMARK   59  A    between atoms: _148  and  _150
REMARK   60  A    between atoms: _150  and  _151
REMARK   61  A    between atoms: _150  and  _153
REMARK   62  A    between atoms: _153  and  _154
REMARK   63  A    between atoms: _160  and  _162
REMARK   64  A    between atoms: _162  and  _163
REMARK   65  A    between atoms: _162  and  _165
REMARK   66  A    between atoms: _165  and  _166
REMARK   67  A    between atoms: _166  and  _167
REMARK   68  A    between atoms: _169  and  _171
REMARK   69  A    between atoms: _171  and  _172
REMARK   70  A    between atoms: _171  and  _174
REMARK   71  A    between atoms: _174  and  _175
REMARK   72  A    between atoms: _178  and  _180
REMARK   73  A    between atoms: _180  and  _181
REMARK   74  A    between atoms: _180  and  _183
REMARK   75  A    between atoms: _183  and  _184
REMARK   76  A    between atoms: _189  and  _191
REMARK   77  A    between atoms: _191  and  _192
REMARK   78  A    between atoms: _191  and  _194
REMARK   79  A    between atoms: _194  and  _195
REMARK   80  A    between atoms: _198  and  _200
REMARK   81  A    between atoms: _200  and  _201
REMARK   82  A    between atoms: _200  and  _203
REMARK   83  A    between atoms: _203  and  _204
REMARK   84  A    between atoms: _207  and  _209
REMARK   85  A    between atoms: _209  and  _210
REMARK   86  A    between atoms: _209  and  _212
REMARK   87  A    between atoms: _212  and  _213
REMARK   88  A    between atoms: _213  and  _214
REMARK   89  A    between atoms: _214  and  _215
REMARK   90  A    between atoms: _215  and  _216
REMARK   91  A    between atoms: _220  and  _222
REMARK   92  A    between atoms: _222  and  _223
REMARK   93  A    between atoms: _222  and  _225
REMARK   94  A    between atoms: _225  and  _226
REMARK   95  A    between atoms: _229  and  _231
REMARK   96  A    between atoms: _231  and  _232
REMARK   97  A    between atoms: _234  and  _236
REMARK   98  A    between atoms: _236  and  _237
REMARK   99  A    between atoms: _236  and  _239
REMARK  100  A    between atoms: _239  and  _240
REMARK  101  A    between atoms: _240  and  _241
REMARK  102  A    between atoms: _241  and  _242
REMARK  103  A    between atoms: _251  and  _253
REMARK  104  A    between atoms: _253  and  _254
REMARK  105  A    between atoms: _253  and  _256
REMARK  106  A    between atoms: _256  and  _257
REMARK  107  A    between atoms: _257  and  _258
REMARK  108  A    between atoms: _258  and  _259
REMARK  109  A    between atoms: _268  and  _270
REMARK  110  A    between atoms: _270  and  _271
REMARK  111  A    between atoms: _270  and  _273
REMARK  112  A    between atoms: _276  and  _278
REMARK  113  A    between atoms: _278  and  _279
REMARK  114  A    between atoms: _278  and  _281
REMARK  115  A    between atoms: _284  and  _286
REMARK  116  A    between atoms: _286  and  _287
REMARK  117  A    between atoms: _286  and  _289
REMARK  118  A    between atoms: _289  and  _290
REMARK                            x       y       z     vdW  Elec       q    Type
REMARK                         _______ _______ _______ _____ _____    ______ ____
ROOT
ATOM      1  CA  PHE A   4      11.938  -7.986  15.947  0.00  0.00    +0.153 C 
ENDROOT
BRANCH   1   2
ATOM      2  C   PHE A   4      11.647  -9.418  16.342  0.00  0.00    +0.241 C 
ATOM      3  O   PHE A   4      12.534 -10.254  16.502  0.00  0.00    -0.273 OA
ATOM      4  N   MET A   5      10.373  -9.711  16.433  0.00  0.00    -0.297 N 
ATOM      5  H   MET A   5       9.679  -8.941  16.348  0.00  0.00    +0.150 HD
BRANCH   4   6
ATOM      6  CA  MET A   5       9.884 -11.065  16.647  0.00  0.00    +0.149 C 
BRANCH   6   7
ATOM      7  C   MET A   5       8.766 -11.337  15.648  0.00  0.00    +0.241 C 
ATOM      8  O   MET A   5       8.002 -10.438  15.309  0.00  0.00    -0.273 OA
ATOM      9  N   LEU A   6       8.651 -12.572  15.206  0.00  0.00    -0.298 N 
ATOM     10  H   LEU A   6       9.389 -13.271  15.423  0.00  0.00    +0.150 HD
BRANCH   9  11
ATOM     11  CA  LEU A   6       7.486 -12.964  14.409  0.00  0.00    +0.137 C 
BRANCH  11  12
ATOM     12  C   LEU A   6       6.346 -13.247  15.352  0.00  0.00    +0.227 C 
ATOM     13  O   LEU A   6       6.511 -13.928  16.366  0.00  0.00    -0.286 OA
ENDBRANCH  11  12
BRANCH  11  14
ATOM     14  CB  LEU A   6       7.731 -14.249  13.620  0.00  0.00    +0.028 C 
BRANCH  14  15
ATOM     15  CG  LEU A   6       8.649 -14.177  12.414  0.00  0.00    +0.002 C 
ATOM     16  CD2 LEU A   6       8.693 -15.524  11.722  0.00  0.00    +0.000 C 
ATOM     17  CD1 LEU A   6       8.188 -13.133  11.432  0.00  0.00    +0.000 C 
ENDBRANCH  14  15
ENDBRANCH  11  14
ENDBRANCH   9  11
ENDBRANCH   6   7
BRANCH   6  18
ATOM     18  CB  MET A   5       9.324 -11.223  18.063  0.00  0.00    +0.041 C 
BRANCH  18  19
ATOM     19  CG  MET A   5      10.336 -11.019  19.186  0.00  0.00    +0.060 C 
BRANCH  19  20
ATOM     20  SD  MET A   5      11.410 -12.441  19.487  0.00  0.00    -0.139 S 
ATOM     21  CE  MET A   5      10.216 -13.732  19.848  0.00  0.00    +0.069 C 
ENDBRANCH  19  20
ENDBRANCH  18  19
ENDBRANCH   6  18
ENDBRANCH   4   6
ENDBRANCH   1   2
BRANCH   1  24
ATOM     22  C   SER A   3      13.135  -6.826  17.692  0.00  0.00    +0.243 C 
ATOM     23  O   SER A   3      12.124  -6.318  18.116  0.00  0.00    -0.273 OA
ATOM     24  N   PHE A   4      13.150  -7.575  16.607  0.00  0.00    -0.297 N 
ATOM     25  H   PHE A   4      14.065  -7.878  16.216  0.00  0.00    +0.150 HD
BRANCH  22  26
ATOM     26  CA  SER A   3      14.470  -6.647  18.408  0.00  0.00    +0.178 C 
BRANCH  26  29
ATOM     27  C   SER A   2      16.434  -7.457  17.261  0.00  0.00    +0.243 C 
ATOM     28  O   SER A   2      16.252  -8.582  17.677  0.00  0.00    -0.273 OA
ATOM     29  N   SER A   3      15.604  -6.462  17.513  0.00  0.00    -0.295 N 
ATOM     30  H   SER A   3      15.762  -5.536  17.067  0.00  0.00    +0.150 HD
BRANCH  27  31
ATOM     31  CA  SER A   2      17.661  -7.164  16.410  0.00  0.00    +0.178 C 
BRANCH  31  33
ATOM     32  C   LEU A   1      17.413  -5.284  14.912  0.00  0.00    +0.238 C 
ATOM     33  N   SER A   2      17.773  -5.760  16.091  0.00  0.00    -0.295 N 
ATOM     34  H   SER A   2      18.147  -5.106  16.808  0.00  0.00    +0.150 HD
ATOM     35  O   LEU A   1      16.863  -5.951  14.060  0.00  0.00    -0.274 OA
BRANCH  32  36
ATOM     36  CA  LEU A   1      17.721  -3.826  14.655  0.00  0.00    +0.145 C 
BRANCH  36  37
ATOM     37  N   LEU A   1      18.288  -3.762  13.302  0.00  0.00    -0.238 NA
ATOM     38  H   LEU A   1      17.961  -4.434  12.579  0.00  0.00    +0.142 HD
ENDBRANCH  36  37
BRANCH  36  39
ATOM     39  CB  LEU A   1      16.450  -2.991  14.764  0.00  0.00    +0.026 C 
BRANCH  39  40
ATOM     40  CG  LEU A   1      15.757  -2.943  16.141  0.00  0.00    +0.002 C 
ATOM     41  CD2 LEU A   1      16.615  -2.232  17.159  0.00  0.00    +0.000 C 
ATOM     42  CD1 LEU A   1      14.389  -2.286  16.037  0.00  0.00    +0.000 C 
ENDBRANCH  39  40
ENDBRANCH  36  39
ENDBRANCH  32  36
ENDBRANCH  31  33
BRANCH  31  43
ATOM     43  CB  SER A   2      18.899  -7.627  17.171  0.00  0.00    +0.166 C 
BRANCH  43  44
ATOM     44  OG  SER A   2      18.835  -7.142  18.488  0.00  0.00    -0.380 OA
ATOM     45  H   SER A   2      18.021  -7.493  18.929  0.00  0.00    +0.211 HD
ENDBRANCH  43  44
ENDBRANCH  31  43
ENDBRANCH  27  31
ENDBRANCH  26  29
BRANCH  26  46
ATOM     46  CB  SER A   3      14.389  -5.506  19.411  0.00  0.00    +0.166 C 
BRANCH  46  47
ATOM     47  OG  SER A   3      14.080  -4.282  18.787  0.00  0.00    -0.380 OA
ATOM     48  H   SER A   3      13.205  -4.358  18.330  0.00  0.00    +0.211 HD
ENDBRANCH  46  47
ENDBRANCH  26  46
ENDBRANCH  22  26
ENDBRANCH   1  24
BRANCH   1  49
ATOM     49  CB  PHE A   4      12.106  -7.953  14.423  0.00  0.00    +0.055 C 
BRANCH  49  50
ATOM     50  CG  PHE A   4      12.202  -6.568  13.842  0.00  0.00    -0.020 A 
ATOM     51  CD2 PHE A   4      13.416  -5.913  13.737  0.00  0.00    -0.004 A 
ATOM     52  CE2 PHE A   4      13.485  -4.646  13.160  0.00  0.00    -0.000 A 
ATOM     53  CZ  PHE A   4      12.348  -4.045  12.688  0.00  0.00    -0.000 A 
ATOM     54  CE1 PHE A   4      11.132  -4.687  12.796  0.00  0.00    -0.000 A 
ATOM     55  CD1 PHE A   4      11.076  -5.945  13.372  0.00  0.00    -0.004 A 
ENDBRANCH  49  50
ENDBRANCH   1  49
TORSDOF 25
REMARK  Name = ../refined-set-2016/4ijh/4ijh_pocket.pdb
REMARK  118 active torsions:
REMARK  status: ('A' for Active; 'I' for Inactive)
REMARK    1  A    between atoms: _1  and  _3
REMARK    2  A    between atoms: _3  and  _4
REMARK    3  A    between atoms: _3  and  _6
REMARK    4  A    between atoms: _6  and  _7
REMARK    5  A    between atoms: _7  and  _8
REMARK    6  A    between atoms: _8  and  _9
REMARK    7  A    between atoms: _19  and  _20
REMARK    8  A    between atoms: _25  and  _27
REMARK    9  A    between atoms: _27  and  _28
REMARK   10  A    between atoms: _27  and  _30
REMARK   11  A    between atoms: _30  and  _31
REMARK   12  A    between atoms: _34  and  _36
REMARK   13  A    between atoms: _36  and  _37
REMARK   14  A    between atoms: _36  and  _39
REMARK   15  A    between atoms: _39  and  _40
REMARK   16  A    between atoms: _43  and  _45
REMARK   17  A    between atoms: _45  and  _46
REMARK   18  A    between atoms: _45  and  _48
REMARK   19  A    between atoms: _48  and  _49
REMARK   20  A    between atoms: _52  and  _54
REMARK   21  A    between atoms: _54  and  _55
REMARK   22  A    between atoms: _57  and  _59
REMARK   23  A    between atoms: _59  and  _60
REMARK   24  A    between atoms: _59  and  _62
REMARK   25  A    between atoms: _62  and  _63
REMARK   26  A    between atoms: _63  and  _64
REMARK   27  A    between atoms: _64  and  _65
REMARK   28  A    between atoms: _74  and  _76
REMARK   29  A    between atoms: _76  and  _77
REMARK   30  A    between atoms: _76  and  _79
REMARK   31  A    between atoms: _79  and  _80
REMARK   32  A    between atoms: _85  and  _86
REMARK   33  A    between atoms: _88  and  _90
REMARK   34  A    between atoms: _90  and  _91
REMARK   35  A    between atoms: _90  and  _93
REMARK   36  A    between atoms: _93  and  _94
REMARK   37  A    between atoms: _94  and  _95
REMARK   38  A    between atoms: _95  and  _96
REMARK   39  A    between atoms: _105  and  _107
REMARK   40  A    between atoms: _107  and  _108
REMARK   41  A    between atoms: _107  and  _110
REMARK   42  A    between atoms: _110  and  _111
REMARK   43  A    between atoms: _114  and  _116
REMARK   44  A    between atoms: _116  and  _117
REMARK   45  A    between atoms: _116  and  _119
REMARK   46  A    between atoms: _119  and  _120
REMARK   47  A    between atoms: _123  and  _125
REMARK   48  A    between atoms: _125  and  _126
REMARK   49  A    between atoms: _125  and  _128
REMARK   50  A    between atoms: _128  and  _129
REMARK   51  A    between atoms: _132  and  _134
REMARK   52  A    between atoms: _134  and  _135
REMARK   53  A    between atoms: _134  and  _137
REMARK   54  A    between atoms: _137  and  _138
REMARK   55  A    between atoms: _140  and  _142
REMARK   56  A    between atoms: _142  and  _143
REMARK   57  A    between atoms: _142  and  _145
REMARK   58  A    between atoms: _145  and  _146
REMARK   59  A    between atoms: _148  and  _150
REMARK   60  A    between atoms: _150  and  _151
REMARK   61  A    between atoms: _150  and  _153
REMARK   62  A    between atoms: _153  and  _154
REMARK   63  A    between atoms: _160  and  _162
REMARK   64  A    between atoms: _162  and  _163
REMARK   65  A    between atoms: _162  and  _165
REMARK   66  A    between atoms: _165  and  _166
REMARK   67  A    between atoms: _166  and  _167
REMARK   68  A    between atoms: _169  and  _171
REMARK   69  A    between atoms: _171  and  _172
REMARK   70  A    between atoms: _171  and  _174
REMARK   71  A    between atoms: _174  and  _175
REMARK   72  A    between atoms: _178  and  _180
REMARK   73  A    between atoms: _180  and  _181
REMARK   74  A    between atoms: _180  and  _183
REMARK   75  A    between atoms: _183  and  _184
REMARK   76  A    between atoms: _189  and  _191
REMARK   77  A    between atoms: _191  and  _192
REMARK   78  A    between atoms: _191  and  _194
REMARK   79  A    between atoms: _194  and  _195
REMARK   80  A    between atoms: _198  and  _200
REMARK   81  A    between atoms: _200  and  _201
REMARK   82  A    between atoms: _200  and  _203
REMARK   83  A    between atoms: _203  and  _204
REMARK   84  A    between atoms: _207  and  _209
REMARK   85  A    between atoms: _209  and  _210
REMARK   86  A    between atoms: _209  and  _212
REMARK   87  A    between atoms: _212  and  _213
REMARK   88  A    between atoms: _213  and  _214
REMARK   89  A    between atoms: _214  and  _215
REMARK   90  A    between atoms: _215  and  _216
REMARK   91  A    between atoms: _220  and  _222
REMARK   92  A    between atoms: _222  and  _223
REMARK   93  A    between atoms: _222  and  _225
REMARK   94  A    between atoms: _225  and  _226
REMARK   95  A    between atoms: _229  and  _231
REMARK   96  A    between atoms: _231  and  _232
REMARK   97  A    between atoms: _234  and  _236
REMARK   98  A    between atoms: _236  and  _237
REMARK   99  A    between atoms: _236  and  _239
REMARK  100  A    between atoms: _239  and  _240
REMARK  101  A    between atoms: _240  and  _241
REMARK  102  A    between atoms: _241  and  _242
REMARK  103  A    between atoms: _251  and  _253
REMARK  104  A    between atoms: _253  and  _254
REMARK  105  A    between atoms: _253  and  _256
REMARK  106  A    between atoms: _256  and  _257
REMARK  107  A    between atoms: _257  and  _258
REMARK  108  A    between atoms: _258  and  _259
REMARK  109  A    between atoms: _268  and  _270
REMARK  110  A    between atoms: _270  and  _271
REMARK  111  A    between atoms: _270  and  _273
REMARK  112  A    between atoms: _276  and  _278
REMARK  113  A    between atoms: _278  and  _279
REMARK  114  A    between atoms: _278  and  _281
REMARK  115  A    between atoms: _284  and  _286
REMARK  116  A    between atoms: _286  and  _287
REMARK  117  A    between atoms: _286  and  _289
REMARK  118  A    between atoms: _289  and  _290
REMARK                            x       y       z     vdW  Elec       q    Type
REMARK                         _______ _______ _______ _____ _____    ______ ____
ROOT
ATOM      1  C   GLY A   6      12.448  -1.570  27.814  0.00  0.00    +0.243 C 
ATOM      2  N   ARG A   7      12.970  -2.741  27.448  0.00  0.00    -0.297 N 
ATOM      3  H   ARG A   7      13.160  -3.478  28.157  0.00  0.00    +0.150 HD
ATOM      4  O   GLY A   6      12.285  -0.655  27.006  0.00  0.00    -0.273 OA
ENDROOT
BRANCH   2   5
ATOM      5  CA  ARG A   7      13.269  -2.973  26.048  0.00  0.00    +0.149 C 
BRANCH   5   6
ATOM      6  C   ARG A   7      12.011  -3.196  25.232  0.00  0.00    +0.241 C 
ATOM      7  O   ARG A   7      11.021  -3.737  25.720  0.00  0.00    -0.273 OA
ATOM      8  N   ARG A   8      12.088  -2.800  23.969  0.00  0.00    -0.297 N 
ATOM      9  H   ARG A   8      12.981  -2.402  23.615  0.00  0.00    +0.150 HD
BRANCH   8  10
ATOM     10  CA  ARG A   8      10.960  -2.909  23.073  0.00  0.00    +0.149 C 
BRANCH  10  11
ATOM     11  C   ARG A   8      11.177  -3.963  22.035  0.00  0.00    +0.241 C 
ATOM     12  O   ARG A   8      12.321  -4.242  21.654  0.00  0.00    -0.273 OA
ATOM     13  N   VAL A   9      10.078  -4.590  21.644  0.00  0.00    -0.297 N 
ATOM     14  H   VAL A   9       9.164  -4.295  22.044  0.00  0.00    +0.150 HD
BRANCH  13  15
ATOM     15  CA  VAL A   9      10.100  -5.667  20.685  0.00  0.00    +0.149 C 
BRANCH  15  16
ATOM     16  C   VAL A   9       9.055  -5.333  19.643  0.00  0.00    +0.241 C 
ATOM     17  O   VAL A   9       7.904  -5.037  19.958  0.00  0.00    -0.273 OA
ATOM     18  N   VAL A  10       9.473  -5.384  18.392  0.00  0.00    -0.297 N 
ATOM     19  H   VAL A  10      10.460  -5.648  18.195  0.00  0.00    +0.150 HD
BRANCH  18  20
ATOM     20  CA  VAL A  10       8.583  -5.079  17.282  0.00  0.00    +0.149 C 
BRANCH  20  21
ATOM     21  C   VAL A  10       8.058  -6.408  16.800  0.00  0.00    +0.241 C 
ATOM     22  N   ILE A  11       6.770  -6.658  17.019  0.00  0.00    -0.298 N 
ATOM     23  H   ILE A  11       6.182  -5.940  17.489  0.00  0.00    +0.150 HD
ATOM     24  O   VAL A  10       8.829  -7.234  16.314  0.00  0.00    -0.273 OA
BRANCH  22  25
ATOM     25  CA  ILE A  11       6.172  -7.917  16.613  0.00  0.00    +0.137 C 
BRANCH  25  26
ATOM     26  CB  ILE A  11       5.175  -8.401  17.652  0.00  0.00    +0.026 C 
ATOM     27  CG2 ILE A  11       4.587  -9.772  17.241  0.00  0.00    +0.002 C 
BRANCH  26  28
ATOM     28  CG1 ILE A  11       5.863  -8.465  19.039  0.00  0.00    +0.002 C 
ATOM     29  CD1 ILE A  11       4.969  -8.863  20.149  0.00  0.00    +0.000 C 
ENDBRANCH  26  28
ENDBRANCH  25  26
BRANCH  25  30
ATOM     30  C   ILE A  11       5.533  -7.791  15.252  0.00  0.00    +0.227 C 
ATOM     31  O   ILE A  11       4.631  -6.966  15.015  0.00  0.00    -0.286 OA
ENDBRANCH  25  30
ENDBRANCH  22  25
ENDBRANCH  20  21
BRANCH  20  32
ATOM     32  CB  VAL A  10       9.337  -4.378  16.145  0.00  0.00    +0.027 C 
ATOM     33  CG2 VAL A  10      10.053  -3.127  16.669  0.00  0.00    +0.002 C 
ATOM     34  CG1 VAL A  10       8.373  -4.033  14.986  0.00  0.00    +0.002 C 
ENDBRANCH  20  32
ENDBRANCH  18  20
ENDBRANCH  15  16
BRANCH  15  35
ATOM     35  CB  VAL A   9       9.742  -7.008  21.316  0.00  0.00    +0.027 C 
ATOM     36  CG2 VAL A   9      10.681  -7.330  22.432  0.00  0.00    +0.002 C 
ATOM     37  CG1 VAL A   9       9.783  -8.119  20.262  0.00  0.00    +0.002 C 
ENDBRANCH  15  35
ENDBRANCH  13  15
ENDBRANCH  10  11
BRANCH  10  38
ATOM     38  CB  ARG A   8      10.655  -1.558  22.473  0.00  0.00    +0.033 C 
BRANCH  38  39
ATOM     39  CG  ARG A   8       9.942  -0.771  23.544  0.00  0.00    +0.045 C 
BRANCH  39  40
ATOM     40  CD  ARG A   8       9.754   0.595  23.180  0.00  0.00    +0.174 C 
BRANCH  40  41
ATOM     41  NE  ARG A   8       8.773   1.266  24.029  0.00  0.00    -0.265 N 
ATOM     42  HE  ARG A   8       8.279   0.712  24.758  0.00  0.00    +0.259 HD
ATOM     43  CZ  ARG A   8       8.489   2.555  23.905  0.00  0.00    +0.342 C 
ATOM     44  NH2 ARG A   8       7.596   3.126  24.662  0.00  0.00    -0.292 N 
ATOM     45 HH21 ARG A   8       7.090   2.569  25.380  0.00  0.00    +0.255 HD
ATOM     46 HH22 ARG A   8       7.388   4.139  24.548  0.00  0.00    +0.255 HD
ATOM     47  NH1 ARG A   8       9.109   3.271  22.970  0.00  0.00    -0.292 N 
ATOM     48 HH11 ARG A   8       8.895   4.283  22.863  0.00  0.00    +0.255 HD
ATOM     49 HH12 ARG A   8       9.808   2.818  22.347  0.00  0.00    +0.255 HD
ENDBRANCH  40  41
ENDBRANCH  39  40
ENDBRANCH  38  39
ENDBRANCH  10  38
ENDBRANCH   8  10
ENDBRANCH   5   6
BRANCH   5  50
ATOM     50  CB  ARG A   7      14.210  -4.154  25.874  0.00  0.00    +0.033 C 
BRANCH  50  51
ATOM     51  CG  ARG A   7      15.599  -3.837  26.332  0.00  0.00    +0.045 C 
BRANCH  51  52
ATOM     52  CD  ARG A   7      16.536  -4.926  25.876  0.00  0.00    +0.174 C 
BRANCH  52  53
ATOM     53  NE  ARG A   7      16.473  -6.075  26.767  0.00  0.00    -0.265 N 
ATOM     54  HE  ARG A   7      16.025  -5.948  27.697  0.00  0.00    +0.259 HD
ATOM     55  CZ  ARG A   7      16.953  -7.275  26.465  0.00  0.00    +0.342 C 
ATOM     56  NH2 ARG A   7      16.867  -8.256  27.355  0.00  0.00    -0.292 N 
ATOM     57 HH21 ARG A   7      16.426  -8.081  28.281  0.00  0.00    +0.255 HD
ATOM     58 HH22 ARG A   7      17.240  -9.199  27.127  0.00  0.00    +0.255 HD
ATOM     59  NH1 ARG A   7      17.527  -7.482  25.288  0.00  0.00    -0.292 N 
ATOM     60 HH11 ARG A   7      17.903  -8.422  25.051  0.00  0.00    +0.255 HD
ATOM     61 HH12 ARG A   7      17.601  -6.704  24.602  0.00  0.00    +0.255 HD
ENDBRANCH  52  53
ENDBRANCH  51  52
ENDBRANCH  50  51
ENDBRANCH   5  50
ENDBRANCH   2   5
BRANCH   1  62
ATOM     62  CA  GLY A   6      12.051  -1.385  29.268  0.00  0.00    +0.176 C 
BRANCH  62  65
ATOM     63  C   ASP A   5      13.162  -2.901  30.806  0.00  0.00    +0.241 C 
ATOM     64  O   ASP A   5      14.155  -2.189  30.849  0.00  0.00    -0.273 OA
ATOM     65  N   GLY A   6      12.117  -2.617  30.032  0.00  0.00    -0.295 N 
ATOM     66  H   GLY A   6      11.330  -3.294  29.973  0.00  0.00    +0.150 HD
BRANCH  63  67
ATOM     67  CA  ASP A   5      13.081  -4.178  31.650  0.00  0.00    +0.160 C 
BRANCH  67  70
ATOM     68  C   LYS A   4      10.763  -4.391  32.246  0.00  0.00    +0.241 C 
ATOM     69  O   LYS A   4      10.807  -3.395  32.984  0.00  0.00    -0.273 OA
ATOM     70  N   ASP A   5      11.801  -4.844  31.551  0.00  0.00    -0.297 N 
ATOM     71  H   ASP A   5      11.693  -5.676  30.937  0.00  0.00    +0.150 HD
BRANCH  68  72
ATOM     72  CA  LYS A   4       9.467  -5.159  32.104  0.00  0.00    +0.149 C 
BRANCH  72  74
ATOM     73  C   LEU A   3       9.279  -4.993  29.688  0.00  0.00    +0.241 C 
ATOM     74  N   LYS A   4       9.298  -5.748  30.783  0.00  0.00    -0.297 N 
ATOM     75  H   LYS A   4       9.190  -6.779  30.694  0.00  0.00    +0.150 HD
ATOM     76  O   LEU A   3       9.484  -3.782  29.730  0.00  0.00    -0.273 OA
BRANCH  73  77
ATOM     77  CA  LEU A   3       8.911  -5.709  28.383  0.00  0.00    +0.149 C 
BRANCH  77  80
ATOM     78  C   THR A   2       7.567  -4.243  27.007  0.00  0.00    +0.243 C 
ATOM     79  O   THR A   2       6.538  -4.543  27.593  0.00  0.00    -0.273 OA
ATOM     80  N   LEU A   3       8.748  -4.758  27.300  0.00  0.00    -0.297 N 
ATOM     81  H   LEU A   3       9.579  -4.475  26.742  0.00  0.00    +0.150 HD
BRANCH  78  82
ATOM     82  CA  THR A   2       7.563  -3.234  25.887  0.00  0.00    +0.176 C 
BRANCH  82  84
ATOM     83  C   ASN A   1       6.659  -3.920  23.741  0.00  0.00    +0.239 C 
ATOM     84  N   THR A   2       6.471  -3.578  24.991  0.00  0.00    -0.295 N 
ATOM     85  H   THR A   2       5.499  -3.551  25.359  0.00  0.00    +0.150 HD
ATOM     86  O   ASN A   1       7.763  -4.016  23.246  0.00  0.00    -0.274 OA
BRANCH  83  87
ATOM     87  CA  ASN A   1       5.424  -4.225  22.932  0.00  0.00    +0.154 C 
BRANCH  87  88
ATOM     88  N   ASN A   1       5.698  -3.909  21.536  0.00  0.00    -0.238 NA
ATOM     89  H   ASN A   1       6.442  -4.436  21.036  0.00  0.00    +0.142 HD
ENDBRANCH  87  88
BRANCH  87  90
ATOM     90  CB  ASN A   1       5.044  -5.703  23.085  0.00  0.00    +0.111 C 
BRANCH  90  91
ATOM     91  CG  ASN A   1       3.556  -5.922  22.966  0.00  0.00    +0.221 C 
ATOM     92  OD1 ASN A   1       2.802  -5.049  23.308  0.00  0.00    -0.275 OA
ATOM     93  ND2 ASN A   1       3.140  -7.091  22.501  0.00  0.00    -0.329 N 
ATOM     94 HD21 ASN A   1       2.122  -7.285  22.419  0.00  0.00    +0.145 HD
ATOM     95 HD22 ASN A   1       3.832  -7.814  22.218  0.00  0.00    +0.145 HD
ENDBRANCH  90  91
ENDBRANCH  87  90
ENDBRANCH  83  87
ENDBRANCH  82  84
BRANCH  82  96
ATOM     96  CB  THR A   2       7.369  -1.816  26.435  0.00  0.00    +0.137 C 
ATOM     97  CG2 THR A   2       8.520  -1.402  27.323  0.00  0.00    +0.034 C 
BRANCH  96  98
ATOM     98  OG1 THR A   2       7.280  -0.923  25.323  0.00  0.00    -0.382 OA
ATOM     99  HG1 THR A   2       7.154   0.002  25.653  0.00  0.00    +0.210 HD
ENDBRANCH  96  98
ENDBRANCH  82  96
ENDBRANCH  78  82
ENDBRANCH  77  80
BRANCH  77 100
ATOM    100  CB  LEU A   3       9.962  -6.751  27.961  0.00  0.00    +0.029 C 
BRANCH 100 101
ATOM    101  CG  LEU A   3       9.353  -7.909  27.129  0.00  0.00    +0.002 C 
ATOM    102  CD2 LEU A   3      10.392  -9.049  26.949  0.00  0.00    +0.000 C 
ATOM    103  CD1 LEU A   3       8.778  -7.517  25.808  0.00  0.00    +0.000 C 
ENDBRANCH 100 101
ENDBRANCH  77 100
ENDBRANCH  73  77
ENDBRANCH  72  74
BRANCH  72 104
ATOM    104  CB  LYS A   4       9.355  -6.225  33.205  0.00  0.00    +0.029 C 
BRANCH 104 105
ATOM    105  CG  LYS A   4       7.935  -6.744  33.384  0.00  0.00    +0.000 C 
BRANCH 105 106
ATOM    106  CD  LYS A   4       7.795  -7.561  34.655  0.00  0.00    -0.024 C 
BRANCH 106 107
ATOM    107  CE  LYS A   4       8.963  -8.499  34.863  0.00  0.00    -0.086 C 
BRANCH 107 108
ATOM    108  NZ  LYS A   4       8.750  -9.356  36.062  0.00  0.00    +0.380 N 
ATOM    109  HZ1 LYS A   4       8.650  -8.754  36.904  0.00  0.00    -0.089 HD
ATOM    110  HZ2 LYS A   4       9.565  -9.990  36.183  0.00  0.00    -0.089 HD
ATOM    111  HZ3 LYS A   4       7.886  -9.921  35.934  0.00  0.00    -0.089 HD
ENDBRANCH 107 108
ENDBRANCH 106 107
ENDBRANCH 105 106
ENDBRANCH 104 105
ENDBRANCH  72 104
ENDBRANCH  68  72
ENDBRANCH  67  70
BRANCH  67 112
ATOM    112  CB  ASP A   5      14.226  -5.162  31.340  0.00  0.00    +0.143 C 
BRANCH 112 113
ATOM    113  CG  ASP A   5      14.363  -5.500  29.855  0.00  0.00    +0.367 C 
ATOM    114  OD2 ASP A   5      15.470  -5.907  29.441  0.00  0.00    -0.246 OA
ATOM    115  OD1 ASP A   5      13.375  -5.392  29.105  0.00  0.00    -0.246 OA
ENDBRANCH 112 113
ENDBRANCH  67 112
ENDBRANCH  63  67
ENDBRANCH  62  65
ENDBRANCH   1  62
TORSDOF 47
REMARK  Name = ../refined-set-2016/4ijh/4ijh_pocket.pdb
REMARK  118 active torsions:
REMARK  status: ('A' for Active; 'I' for Inactive)
REMARK    1  A    between atoms: _1  and  _3
REMARK    2  A    between atoms: _3  and  _4
REMARK    3  A    between atoms: _3  and  _6
REMARK    4  A    between atoms: _6  and  _7
REMARK    5  A    between atoms: _7  and  _8
REMARK    6  A    between atoms: _8  and  _9
REMARK    7  A    between atoms: _19  and  _20
REMARK    8  A    between atoms: _25  and  _27
REMARK    9  A    between atoms: _27  and  _28
REMARK   10  A    between atoms: _27  and  _30
REMARK   11  A    between atoms: _30  and  _31
REMARK   12  A    between atoms: _34  and  _36
REMARK   13  A    between atoms: _36  and  _37
REMARK   14  A    between atoms: _36  and  _39
REMARK   15  A    between atoms: _39  and  _40
REMARK   16  A    between atoms: _43  and  _45
REMARK   17  A    between atoms: _45  and  _46
REMARK   18  A    between atoms: _45  and  _48
REMARK   19  A    between atoms: _48  and  _49
REMARK   20  A    between atoms: _52  and  _54
REMARK   21  A    between atoms: _54  and  _55
REMARK   22  A    between atoms: _57  and  _59
REMARK   23  A    between atoms: _59  and  _60
REMARK   24  A    between atoms: _59  and  _62
REMARK   25  A    between atoms: _62  and  _63
REMARK   26  A    between atoms: _63  and  _64
REMARK   27  A    between atoms: _64  and  _65
REMARK   28  A    between atoms: _74  and  _76
REMARK   29  A    between atoms: _76  and  _77
REMARK   30  A    between atoms: _76  and  _79
REMARK   31  A    between atoms: _79  and  _80
REMARK   32  A    between atoms: _85  and  _86
REMARK   33  A    between atoms: _88  and  _90
REMARK   34  A    between atoms: _90  and  _91
REMARK   35  A    between atoms: _90  and  _93
REMARK   36  A    between atoms: _93  and  _94
REMARK   37  A    between atoms: _94  and  _95
REMARK   38  A    between atoms: _95  and  _96
REMARK   39  A    between atoms: _105  and  _107
REMARK   40  A    between atoms: _107  and  _108
REMARK   41  A    between atoms: _107  and  _110
REMARK   42  A    between atoms: _110  and  _111
REMARK   43  A    between atoms: _114  and  _116
REMARK   44  A    between atoms: _116  and  _117
REMARK   45  A    between atoms: _116  and  _119
REMARK   46  A    between atoms: _119  and  _120
REMARK   47  A    between atoms: _123  and  _125
REMARK   48  A    between atoms: _125  and  _126
REMARK   49  A    between atoms: _125  and  _128
REMARK   50  A    between atoms: _128  and  _129
REMARK   51  A    between atoms: _132  and  _134
REMARK   52  A    between atoms: _134  and  _135
REMARK   53  A    between atoms: _134  and  _137
REMARK   54  A    between atoms: _137  and  _138
REMARK   55  A    between atoms: _140  and  _142
REMARK   56  A    between atoms: _142  and  _143
REMARK   57  A    between atoms: _142  and  _145
REMARK   58  A    between atoms: _145  and  _146
REMARK   59  A    between atoms: _148  and  _150
REMARK   60  A    between atoms: _150  and  _151
REMARK   61  A    between atoms: _150  and  _153
REMARK   62  A    between atoms: _153  and  _154
REMARK   63  A    between atoms: _160  and  _162
REMARK   64  A    between atoms: _162  and  _163
REMARK   65  A    between atoms: _162  and  _165
REMARK   66  A    between atoms: _165  and  _166
REMARK   67  A    between atoms: _166  and  _167
REMARK   68  A    between atoms: _169  and  _171
REMARK   69  A    between atoms: _171  and  _172
REMARK   70  A    between atoms: _171  and  _174
REMARK   71  A    between atoms: _174  and  _175
REMARK   72  A    between atoms: _178  and  _180
REMARK   73  A    between atoms: _180  and  _181
REMARK   74  A    between atoms: _180  and  _183
REMARK   75  A    between atoms: _183  and  _184
REMARK   76  A    between atoms: _189  and  _191
REMARK   77  A    between atoms: _191  and  _192
REMARK   78  A    between atoms: _191  and  _194
REMARK   79  A    between atoms: _194  and  _195
REMARK   80  A    between atoms: _198  and  _200
REMARK   81  A    between atoms: _200  and  _201
REMARK   82  A    between atoms: _200  and  _203
REMARK   83  A    between atoms: _203  and  _204
REMARK   84  A    between atoms: _207  and  _209
REMARK   85  A    between atoms: _209  and  _210
REMARK   86  A    between atoms: _209  and  _212
REMARK   87  A    between atoms: _212  and  _213
REMARK   88  A    between atoms: _213  and  _214
REMARK   89  A    between atoms: _214  and  _215
REMARK   90  A    between atoms: _215  and  _216
REMARK   91  A    between atoms: _220  and  _222
REMARK   92  A    between atoms: _222  and  _223
REMARK   93  A    between atoms: _222  and  _225
REMARK   94  A    between atoms: _225  and  _226
REMARK   95  A    between atoms: _229  and  _231
REMARK   96  A    between atoms: _231  and  _232
REMARK   97  A    between atoms: _234  and  _236
REMARK   98  A    between atoms: _236  and  _237
REMARK   99  A    between atoms: _236  and  _239
REMARK  100  A    between atoms: _239  and  _240
REMARK  101  A    between atoms: _240  and  _241
REMARK  102  A    between atoms: _241  and  _242
REMARK  103  A    between atoms: _251  and  _253
REMARK  104  A    between atoms: _253  and  _254
REMARK  105  A    between atoms: _253  and  _256
REMARK  106  A    between atoms: _256  and  _257
REMARK  107  A    between atoms: _257  and  _258
REMARK  108  A    between atoms: _258  and  _259
REMARK  109  A    between atoms: _268  and  _270
REMARK  110  A    between atoms: _270  and  _271
REMARK  111  A    between atoms: _270  and  _273
REMARK  112  A    between atoms: _276  and  _278
REMARK  113  A    between atoms: _278  and  _279
REMARK  114  A    between atoms: _278  and  _281
REMARK  115  A    between atoms: _284  and  _286
REMARK  116  A    between atoms: _286  and  _287
REMARK  117  A    between atoms: _286  and  _289
REMARK  118  A    between atoms: _289  and  _290
REMARK                            x       y       z     vdW  Elec       q    Type
REMARK                         _______ _______ _______ _____ _____    ______ ____
ROOT
ATOM      1  O   HOH     1      11.832 -21.169  20.169  0.00  0.00    +0.000 OA
ENDROOT
TORSDOF 0
REMARK  Name = ../refined-set-2016/4ijh/4ijh_pocket.pdb
REMARK  118 active torsions:
REMARK  status: ('A' for Active; 'I' for Inactive)
REMARK    1  A    between atoms: _1  and  _3
REMARK    2  A    between atoms: _3  and  _4
REMARK    3  A    between atoms: _3  and  _6
REMARK    4  A    between atoms: _6  and  _7
REMARK    5  A    between atoms: _7  and  _8
REMARK    6  A    between atoms: _8  and  _9
REMARK    7  A    between atoms: _19  and  _20
REMARK    8  A    between atoms: _25  and  _27
REMARK    9  A    between atoms: _27  and  _28
REMARK   10  A    between atoms: _27  and  _30
REMARK   11  A    between atoms: _30  and  _31
REMARK   12  A    between atoms: _34  and  _36
REMARK   13  A    between atoms: _36  and  _37
REMARK   14  A    between atoms: _36  and  _39
REMARK   15  A    between atoms: _39  and  _40
REMARK   16  A    between atoms: _43  and  _45
REMARK   17  A    between atoms: _45  and  _46
REMARK   18  A    between atoms: _45  and  _48
REMARK   19  A    between atoms: _48  and  _49
REMARK   20  A    between atoms: _52  and  _54
REMARK   21  A    between atoms: _54  and  _55
REMARK   22  A    between atoms: _57  and  _59
REMARK   23  A    between atoms: _59  and  _60
REMARK   24  A    between atoms: _59  and  _62
REMARK   25  A    between atoms: _62  and  _63
REMARK   26  A    between atoms: _63  and  _64
REMARK   27  A    between atoms: _64  and  _65
REMARK   28  A    between atoms: _74  and  _76
REMARK   29  A    between atoms: _76  and  _77
REMARK   30  A    between atoms: _76  and  _79
REMARK   31  A    between atoms: _79  and  _80
REMARK   32  A    between atoms: _85  and  _86
REMARK   33  A    between atoms: _88  and  _90
REMARK   34  A    between atoms: _90  and  _91
REMARK   35  A    between atoms: _90  and  _93
REMARK   36  A    between atoms: _93  and  _94
REMARK   37  A    between atoms: _94  and  _95
REMARK   38  A    between atoms: _95  and  _96
REMARK   39  A    between atoms: _105  and  _107
REMARK   40  A    between atoms: _107  and  _108
REMARK   41  A    between atoms: _107  and  _110
REMARK   42  A    between atoms: _110  and  _111
REMARK   43  A    between atoms: _114  and  _116
REMARK   44  A    between atoms: _116  and  _117
REMARK   45  A    between atoms: _116  and  _119
REMARK   46  A    between atoms: _119  and  _120
REMARK   47  A    between atoms: _123  and  _125
REMARK   48  A    between atoms: _125  and  _126
REMARK   49  A    between atoms: _125  and  _128
REMARK   50  A    between atoms: _128  and  _129
REMARK   51  A    between atoms: _132  and  _134
REMARK   52  A    between atoms: _134  and  _135
REMARK   53  A    between atoms: _134  and  _137
REMARK   54  A    between atoms: _137  and  _138
REMARK   55  A    between atoms: _140  and  _142
REMARK   56  A    between atoms: _142  and  _143
REMARK   57  A    between atoms: _142  and  _145
REMARK   58  A    between atoms: _145  and  _146
REMARK   59  A    between atoms: _148  and  _150
REMARK   60  A    between atoms: _150  and  _151
REMARK   61  A    between atoms: _150  and  _153
REMARK   62  A    between atoms: _153  and  _154
REMARK   63  A    between atoms: _160  and  _162
REMARK   64  A    between atoms: _162  and  _163
REMARK   65  A    between atoms: _162  and  _165
REMARK   66  A    between atoms: _165  and  _166
REMARK   67  A    between atoms: _166  and  _167
REMARK   68  A    between atoms: _169  and  _171
REMARK   69  A    between atoms: _171  and  _172
REMARK   70  A    between atoms: _171  and  _174
REMARK   71  A    between atoms: _174  and  _175
REMARK   72  A    between atoms: _178  and  _180
REMARK   73  A    between atoms: _180  and  _181
REMARK   74  A    between atoms: _180  and  _183
REMARK   75  A    between atoms: _183  and  _184
REMARK   76  A    between atoms: _189  and  _191
REMARK   77  A    between atoms: _191  and  _192
REMARK   78  A    between atoms: _191  and  _194
REMARK   79  A    between atoms: _194  and  _195
REMARK   80  A    between atoms: _198  and  _200
REMARK   81  A    between atoms: _200  and  _201
REMARK   82  A    between atoms: _200  and  _203
REMARK   83  A    between atoms: _203  and  _204
REMARK   84  A    between atoms: _207  and  _209
REMARK   85  A    between atoms: _209  and  _210
REMARK   86  A    between atoms: _209  and  _212
REMARK   87  A    between atoms: _212  and  _213
REMARK   88  A    between atoms: _213  and  _214
REMARK   89  A    between atoms: _214  and  _215
REMARK   90  A    between atoms: _215  and  _216
REMARK   91  A    between atoms: _220  and  _222
REMARK   92  A    between atoms: _222  and  _223
REMARK   93  A    between atoms: _222  and  _225
REMARK   94  A    between atoms: _225  and  _226
REMARK   95  A    between atoms: _229  and  _231
REMARK   96  A    between atoms: _231  and  _232
REMARK   97  A    between atoms: _234  and  _236
REMARK   98  A    between atoms: _236  and  _237
REMARK   99  A    between atoms: _236  and  _239
REMARK  100  A    between atoms: _239  and  _240
REMARK  101  A    between atoms: _240  and  _241
REMARK  102  A    between atoms: _241  and  _242
REMARK  103  A    between atoms: _251  and  _253
REMARK  104  A    between atoms: _253  and  _254
REMARK  105  A    between atoms: _253  and  _256
REMARK  106  A    between atoms: _256  and  _257
REMARK  107  A    between atoms: _257  and  _258
REMARK  108  A    between atoms: _258  and  _259
REMARK  109  A    between atoms: _268  and  _270
REMARK  110  A    between atoms: _270  and  _271
REMARK  111  A    between atoms: _270  and  _273
REMARK  112  A    between atoms: _276  and  _278
REMARK  113  A    between atoms: _278  and  _279
REMARK  114  A    between atoms: _278  and  _281
REMARK  115  A    between atoms: _284  and  _286
REMARK  116  A    between atoms: _286  and  _287
REMARK  117  A    between atoms: _286  and  _289
REMARK  118  A    between atoms: _289  and  _290
REMARK                            x       y       z     vdW  Elec       q    Type
REMARK                         _______ _______ _______ _____ _____    ______ ____
ROOT
ATOM      1  O   HOH     1      17.246  -6.507  31.303  0.00  0.00    +0.000 OA
ENDROOT
TORSDOF 0
REMARK  Name = ../refined-set-2016/4ijh/4ijh_pocket.pdb
REMARK  118 active torsions:
REMARK  status: ('A' for Active; 'I' for Inactive)
REMARK    1  A    between atoms: _1  and  _3
REMARK    2  A    between atoms: _3  and  _4
REMARK    3  A    between atoms: _3  and  _6
REMARK    4  A    between atoms: _6  and  _7
REMARK    5  A    between atoms: _7  and  _8
REMARK    6  A    between atoms: _8  and  _9
REMARK    7  A    between atoms: _19  and  _20
REMARK    8  A    between atoms: _25  and  _27
REMARK    9  A    between atoms: _27  and  _28
REMARK   10  A    between atoms: _27  and  _30
REMARK   11  A    between atoms: _30  and  _31
REMARK   12  A    between atoms: _34  and  _36
REMARK   13  A    between atoms: _36  and  _37
REMARK   14  A    between atoms: _36  and  _39
REMARK   15  A    between atoms: _39  and  _40
REMARK   16  A    between atoms: _43  and  _45
REMARK   17  A    between atoms: _45  and  _46
REMARK   18  A    between atoms: _45  and  _48
REMARK   19  A    between atoms: _48  and  _49
REMARK   20  A    between atoms: _52  and  _54
REMARK   21  A    between atoms: _54  and  _55
REMARK   22  A    between atoms: _57  and  _59
REMARK   23  A    between atoms: _59  and  _60
REMARK   24  A    between atoms: _59  and  _62
REMARK   25  A    between atoms: _62  and  _63
REMARK   26  A    between atoms: _63  and  _64
REMARK   27  A    between atoms: _64  and  _65
REMARK   28  A    between atoms: _74  and  _76
REMARK   29  A    between atoms: _76  and  _77
REMARK   30  A    between atoms: _76  and  _79
REMARK   31  A    between atoms: _79  and  _80
REMARK   32  A    between atoms: _85  and  _86
REMARK   33  A    between atoms: _88  and  _90
REMARK   34  A    between atoms: _90  and  _91
REMARK   35  A    between atoms: _90  and  _93
REMARK   36  A    between atoms: _93  and  _94
REMARK   37  A    between atoms: _94  and  _95
REMARK   38  A    between atoms: _95  and  _96
REMARK   39  A    between atoms: _105  and  _107
REMARK   40  A    between atoms: _107  and  _108
REMARK   41  A    between atoms: _107  and  _110
REMARK   42  A    between atoms: _110  and  _111
REMARK   43  A    between atoms: _114  and  _116
REMARK   44  A    between atoms: _116  and  _117
REMARK   45  A    between atoms: _116  and  _119
REMARK   46  A    between atoms: _119  and  _120
REMARK   47  A    between atoms: _123  and  _125
REMARK   48  A    between atoms: _125  and  _126
REMARK   49  A    between atoms: _125  and  _128
REMARK   50  A    between atoms: _128  and  _129
REMARK   51  A    between atoms: _132  and  _134
REMARK   52  A    between atoms: _134  and  _135
REMARK   53  A    between atoms: _134  and  _137
REMARK   54  A    between atoms: _137  and  _138
REMARK   55  A    between atoms: _140  and  _142
REMARK   56  A    between atoms: _142  and  _143
REMARK   57  A    between atoms: _142  and  _145
REMARK   58  A    between atoms: _145  and  _146
REMARK   59  A    between atoms: _148  and  _150
REMARK   60  A    between atoms: _150  and  _151
REMARK   61  A    between atoms: _150  and  _153
REMARK   62  A    between atoms: _153  and  _154
REMARK   63  A    between atoms: _160  and  _162
REMARK   64  A    between atoms: _162  and  _163
REMARK   65  A    between atoms: _162  and  _165
REMARK   66  A    between atoms: _165  and  _166
REMARK   67  A    between atoms: _166  and  _167
REMARK   68  A    between atoms: _169  and  _171
REMARK   69  A    between atoms: _171  and  _172
REMARK   70  A    between atoms: _171  and  _174
REMARK   71  A    between atoms: _174  and  _175
REMARK   72  A    between atoms: _178  and  _180
REMARK   73  A    between atoms: _180  and  _181
REMARK   74  A    between atoms: _180  and  _183
REMARK   75  A    between atoms: _183  and  _184
REMARK   76  A    between atoms: _189  and  _191
REMARK   77  A    between atoms: _191  and  _192
REMARK   78  A    between atoms: _191  and  _194
REMARK   79  A    between atoms: _194  and  _195
REMARK   80  A    between atoms: _198  and  _200
REMARK   81  A    between atoms: _200  and  _201
REMARK   82  A    between atoms: _200  and  _203
REMARK   83  A    between atoms: _203  and  _204
REMARK   84  A    between atoms: _207  and  _209
REMARK   85  A    between atoms: _209  and  _210
REMARK   86  A    between atoms: _209  and  _212
REMARK   87  A    between atoms: _212  and  _213
REMARK   88  A    between atoms: _213  and  _214
REMARK   89  A    between atoms: _214  and  _215
REMARK   90  A    between atoms: _215  and  _216
REMARK   91  A    between atoms: _220  and  _222
REMARK   92  A    between atoms: _222  and  _223
REMARK   93  A    between atoms: _222  and  _225
REMARK   94  A    between atoms: _225  and  _226
REMARK   95  A    between atoms: _229  and  _231
REMARK   96  A    between atoms: _231  and  _232
REMARK   97  A    between atoms: _234  and  _236
REMARK   98  A    between atoms: _236  and  _237
REMARK   99  A    between atoms: _236  and  _239
REMARK  100  A    between atoms: _239  and  _240
REMARK  101  A    between atoms: _240  and  _241
REMARK  102  A    between atoms: _241  and  _242
REMARK  103  A    between atoms: _251  and  _253
REMARK  104  A    between atoms: _253  and  _254
REMARK  105  A    between atoms: _253  and  _256
REMARK  106  A    between atoms: _256  and  _257
REMARK  107  A    between atoms: _257  and  _258
REMARK  108  A    between atoms: _258  and  _259
REMARK  109  A    between atoms: _268  and  _270
REMARK  110  A    between atoms: _270  and  _271
REMARK  111  A    between atoms: _270  and  _273
REMARK  112  A    between atoms: _276  and  _278
REMARK  113  A    between atoms: _278  and  _279
REMARK  114  A    between atoms: _278  and  _281
REMARK  115  A    between atoms: _284  and  _286
REMARK  116  A    between atoms: _286  and  _287
REMARK  117  A    between atoms: _286  and  _289
REMARK  118  A    between atoms: _289  and  _290
REMARK                            x       y       z     vdW  Elec       q    Type
REMARK                         _______ _______ _______ _____ _____    ______ ____
ROOT
ATOM      1  O   HOH     1      18.155 -12.902  14.835  0.00  0.00    +0.000 OA
ENDROOT
TORSDOF 0
REMARK  Name = ../refined-set-2016/4ijh/4ijh_pocket.pdb
REMARK  118 active torsions:
REMARK  status: ('A' for Active; 'I' for Inactive)
REMARK    1  A    between atoms: _1  and  _3
REMARK    2  A    between atoms: _3  and  _4
REMARK    3  A    between atoms: _3  and  _6
REMARK    4  A    between atoms: _6  and  _7
REMARK    5  A    between atoms: _7  and  _8
REMARK    6  A    between atoms: _8  and  _9
REMARK    7  A    between atoms: _19  and  _20
REMARK    8  A    between atoms: _25  and  _27
REMARK    9  A    between atoms: _27  and  _28
REMARK   10  A    between atoms: _27  and  _30
REMARK   11  A    between atoms: _30  and  _31
REMARK   12  A    between atoms: _34  and  _36
REMARK   13  A    between atoms: _36  and  _37
REMARK   14  A    between atoms: _36  and  _39
REMARK   15  A    between atoms: _39  and  _40
REMARK   16  A    between atoms: _43  and  _45
REMARK   17  A    between atoms: _45  and  _46
REMARK   18  A    between atoms: _45  and  _48
REMARK   19  A    between atoms: _48  and  _49
REMARK   20  A    between atoms: _52  and  _54
REMARK   21  A    between atoms: _54  and  _55
REMARK   22  A    between atoms: _57  and  _59
REMARK   23  A    between atoms: _59  and  _60
REMARK   24  A    between atoms: _59  and  _62
REMARK   25  A    between atoms: _62  and  _63
REMARK   26  A    between atoms: _63  and  _64
REMARK   27  A    between atoms: _64  and  _65
REMARK   28  A    between atoms: _74  and  _76
REMARK   29  A    between atoms: _76  and  _77
REMARK   30  A    between atoms: _76  and  _79
REMARK   31  A    between atoms: _79  and  _80
REMARK   32  A    between atoms: _85  and  _86
REMARK   33  A    between atoms: _88  and  _90
REMARK   34  A    between atoms: _90  and  _91
REMARK   35  A    between atoms: _90  and  _93
REMARK   36  A    between atoms: _93  and  _94
REMARK   37  A    between atoms: _94  and  _95
REMARK   38  A    between atoms: _95  and  _96
REMARK   39  A    between atoms: _105  and  _107
REMARK   40  A    between atoms: _107  and  _108
REMARK   41  A    between atoms: _107  and  _110
REMARK   42  A    between atoms: _110  and  _111
REMARK   43  A    between atoms: _114  and  _116
REMARK   44  A    between atoms: _116  and  _117
REMARK   45  A    between atoms: _116  and  _119
REMARK   46  A    between atoms: _119  and  _120
REMARK   47  A    between atoms: _123  and  _125
REMARK   48  A    between atoms: _125  and  _126
REMARK   49  A    between atoms: _125  and  _128
REMARK   50  A    between atoms: _128  and  _129
REMARK   51  A    between atoms: _132  and  _134
REMARK   52  A    between atoms: _134  and  _135
REMARK   53  A    between atoms: _134  and  _137
REMARK   54  A    between atoms: _137  and  _138
REMARK   55  A    between atoms: _140  and  _142
REMARK   56  A    between atoms: _142  and  _143
REMARK   57  A    between atoms: _142  and  _145
REMARK   58  A    between atoms: _145  and  _146
REMARK   59  A    between atoms: _148  and  _150
REMARK   60  A    between atoms: _150  and  _151
REMARK   61  A    between atoms: _150  and  _153
REMARK   62  A    between atoms: _153  and  _154
REMARK   63  A    between atoms: _160  and  _162
REMARK   64  A    between atoms: _162  and  _163
REMARK   65  A    between atoms: _162  and  _165
REMARK   66  A    between atoms: _165  and  _166
REMARK   67  A    between atoms: _166  and  _167
REMARK   68  A    between atoms: _169  and  _171
REMARK   69  A    between atoms: _171  and  _172
REMARK   70  A    between atoms: _171  and  _174
REMARK   71  A    between atoms: _174  and  _175
REMARK   72  A    between atoms: _178  and  _180
REMARK   73  A    between atoms: _180  and  _181
REMARK   74  A    between atoms: _180  and  _183
REMARK   75  A    between atoms: _183  and  _184
REMARK   76  A    between atoms: _189  and  _191
REMARK   77  A    between atoms: _191  and  _192
REMARK   78  A    between atoms: _191  and  _194
REMARK   79  A    between atoms: _194  and  _195
REMARK   80  A    between atoms: _198  and  _200
REMARK   81  A    between atoms: _200  and  _201
REMARK   82  A    between atoms: _200  and  _203
REMARK   83  A    between atoms: _203  and  _204
REMARK   84  A    between atoms: _207  and  _209
REMARK   85  A    between atoms: _209  and  _210
REMARK   86  A    between atoms: _209  and  _212
REMARK   87  A    between atoms: _212  and  _213
REMARK   88  A    between atoms: _213  and  _214
REMARK   89  A    between atoms: _214  and  _215
REMARK   90  A    between atoms: _215  and  _216
REMARK   91  A    between atoms: _220  and  _222
REMARK   92  A    between atoms: _222  and  _223
REMARK   93  A    between atoms: _222  and  _225
REMARK   94  A    between atoms: _225  and  _226
REMARK   95  A    between atoms: _229  and  _231
REMARK   96  A    between atoms: _231  and  _232
REMARK   97  A    between atoms: _234  and  _236
REMARK   98  A    between atoms: _236  and  _237
REMARK   99  A    between atoms: _236  and  _239
REMARK  100  A    between atoms: _239  and  _240
REMARK  101  A    between atoms: _240  and  _241
REMARK  102  A    between atoms: _241  and  _242
REMARK  103  A    between atoms: _251  and  _253
REMARK  104  A    between atoms: _253  and  _254
REMARK  105  A    between atoms: _253  and  _256
REMARK  106  A    between atoms: _256  and  _257
REMARK  107  A    between atoms: _257  and  _258
REMARK  108  A    between atoms: _258  and  _259
REMARK  109  A    between atoms: _268  and  _270
REMARK  110  A    between atoms: _270  and  _271
REMARK  111  A    between atoms: _270  and  _273
REMARK  112  A    between atoms: _276  and  _278
REMARK  113  A    between atoms: _278  and  _279
REMARK  114  A    between atoms: _278  and  _281
REMARK  115  A    between atoms: _284  and  _286
REMARK  116  A    between atoms: _286  and  _287
REMARK  117  A    between atoms: _286  and  _289
REMARK  118  A    between atoms: _289  and  _290
REMARK                            x       y       z     vdW  Elec       q    Type
REMARK                         _______ _______ _______ _____ _____    ______ ____
ROOT
ATOM      1  O   HOH     1      13.389 -24.234  26.311  0.00  0.00    +0.000 OA
ENDROOT
TORSDOF 0
REMARK  Name = ../refined-set-2016/4ijh/4ijh_pocket.pdb
REMARK  118 active torsions:
REMARK  status: ('A' for Active; 'I' for Inactive)
REMARK    1  A    between atoms: _1  and  _3
REMARK    2  A    between atoms: _3  and  _4
REMARK    3  A    between atoms: _3  and  _6
REMARK    4  A    between atoms: _6  and  _7
REMARK    5  A    between atoms: _7  and  _8
REMARK    6  A    between atoms: _8  and  _9
REMARK    7  A    between atoms: _19  and  _20
REMARK    8  A    between atoms: _25  and  _27
REMARK    9  A    between atoms: _27  and  _28
REMARK   10  A    between atoms: _27  and  _30
REMARK   11  A    between atoms: _30  and  _31
REMARK   12  A    between atoms: _34  and  _36
REMARK   13  A    between atoms: _36  and  _37
REMARK   14  A    between atoms: _36  and  _39
REMARK   15  A    between atoms: _39  and  _40
REMARK   16  A    between atoms: _43  and  _45
REMARK   17  A    between atoms: _45  and  _46
REMARK   18  A    between atoms: _45  and  _48
REMARK   19  A    between atoms: _48  and  _49
REMARK   20  A    between atoms: _52  and  _54
REMARK   21  A    between atoms: _54  and  _55
REMARK   22  A    between atoms: _57  and  _59
REMARK   23  A    between atoms: _59  and  _60
REMARK   24  A    between atoms: _59  and  _62
REMARK   25  A    between atoms: _62  and  _63
REMARK   26  A    between atoms: _63  and  _64
REMARK   27  A    between atoms: _64  and  _65
REMARK   28  A    between atoms: _74  and  _76
REMARK   29  A    between atoms: _76  and  _77
REMARK   30  A    between atoms: _76  and  _79
REMARK   31  A    between atoms: _79  and  _80
REMARK   32  A    between atoms: _85  and  _86
REMARK   33  A    between atoms: _88  and  _90
REMARK   34  A    between atoms: _90  and  _91
REMARK   35  A    between atoms: _90  and  _93
REMARK   36  A    between atoms: _93  and  _94
REMARK   37  A    between atoms: _94  and  _95
REMARK   38  A    between atoms: _95  and  _96
REMARK   39  A    between atoms: _105  and  _107
REMARK   40  A    between atoms: _107  and  _108
REMARK   41  A    between atoms: _107  and  _110
REMARK   42  A    between atoms: _110  and  _111
REMARK   43  A    between atoms: _114  and  _116
REMARK   44  A    between atoms: _116  and  _117
REMARK   45  A    between atoms: _116  and  _119
REMARK   46  A    between atoms: _119  and  _120
REMARK   47  A    between atoms: _123  and  _125
REMARK   48  A    between atoms: _125  and  _126
REMARK   49  A    between atoms: _125  and  _128
REMARK   50  A    between atoms: _128  and  _129
REMARK   51  A    between atoms: _132  and  _134
REMARK   52  A    between atoms: _134  and  _135
REMARK   53  A    between atoms: _134  and  _137
REMARK   54  A    between atoms: _137  and  _138
REMARK   55  A    between atoms: _140  and  _142
REMARK   56  A    between atoms: _142  and  _143
REMARK   57  A    between atoms: _142  and  _145
REMARK   58  A    between atoms: _145  and  _146
REMARK   59  A    between atoms: _148  and  _150
REMARK   60  A    between atoms: _150  and  _151
REMARK   61  A    between atoms: _150  and  _153
REMARK   62  A    between atoms: _153  and  _154
REMARK   63  A    between atoms: _160  and  _162
REMARK   64  A    between atoms: _162  and  _163
REMARK   65  A    between atoms: _162  and  _165
REMARK   66  A    between atoms: _165  and  _166
REMARK   67  A    between atoms: _166  and  _167
REMARK   68  A    between atoms: _169  and  _171
REMARK   69  A    between atoms: _171  and  _172
REMARK   70  A    between atoms: _171  and  _174
REMARK   71  A    between atoms: _174  and  _175
REMARK   72  A    between atoms: _178  and  _180
REMARK   73  A    between atoms: _180  and  _181
REMARK   74  A    between atoms: _180  and  _183
REMARK   75  A    between atoms: _183  and  _184
REMARK   76  A    between atoms: _189  and  _191
REMARK   77  A    between atoms: _191  and  _192
REMARK   78  A    between atoms: _191  and  _194
REMARK   79  A    between atoms: _194  and  _195
REMARK   80  A    between atoms: _198  and  _200
REMARK   81  A    between atoms: _200  and  _201
REMARK   82  A    between atoms: _200  and  _203
REMARK   83  A    between atoms: _203  and  _204
REMARK   84  A    between atoms: _207  and  _209
REMARK   85  A    between atoms: _209  and  _210
REMARK   86  A    between atoms: _209  and  _212
REMARK   87  A    between atoms: _212  and  _213
REMARK   88  A    between atoms: _213  and  _214
REMARK   89  A    between atoms: _214  and  _215
REMARK   90  A    between atoms: _215  and  _216
REMARK   91  A    between atoms: _220  and  _222
REMARK   92  A    between atoms: _222  and  _223
REMARK   93  A    between atoms: _222  and  _225
REMARK   94  A    between atoms: _225  and  _226
REMARK   95  A    between atoms: _229  and  _231
REMARK   96  A    between atoms: _231  and  _232
REMARK   97  A    between atoms: _234  and  _236
REMARK   98  A    between atoms: _236  and  _237
REMARK   99  A    between atoms: _236  and  _239
REMARK  100  A    between atoms: _239  and  _240
REMARK  101  A    between atoms: _240  and  _241
REMARK  102  A    between atoms: _241  and  _242
REMARK  103  A    between atoms: _251  and  _253
REMARK  104  A    between atoms: _253  and  _254
REMARK  105  A    between atoms: _253  and  _256
REMARK  106  A    between atoms: _256  and  _257
REMARK  107  A    between atoms: _257  and  _258
REMARK  108  A    between atoms: _258  and  _259
REMARK  109  A    between atoms: _268  and  _270
REMARK  110  A    between atoms: _270  and  _271
REMARK  111  A    between atoms: _270  and  _273
REMARK  112  A    between atoms: _276  and  _278
REMARK  113  A    between atoms: _278  and  _279
REMARK  114  A    between atoms: _278  and  _281
REMARK  115  A    between atoms: _284  and  _286
REMARK  116  A    between atoms: _286  and  _287
REMARK  117  A    between atoms: _286  and  _289
REMARK  118  A    between atoms: _289  and  _290
REMARK                            x       y       z     vdW  Elec       q    Type
REMARK                         _______ _______ _______ _____ _____    ______ ____
ROOT
ATOM      1  O   HOH     1      14.497  -1.164  23.018  0.00  0.00    +0.000 OA
ENDROOT
TORSDOF 0
REMARK  Name = ../refined-set-2016/4ijh/4ijh_pocket.pdb
REMARK  118 active torsions:
REMARK  status: ('A' for Active; 'I' for Inactive)
REMARK    1  A    between atoms: _1  and  _3
REMARK    2  A    between atoms: _3  and  _4
REMARK    3  A    between atoms: _3  and  _6
REMARK    4  A    between atoms: _6  and  _7
REMARK    5  A    between atoms: _7  and  _8
REMARK    6  A    between atoms: _8  and  _9
REMARK    7  A    between atoms: _19  and  _20
REMARK    8  A    between atoms: _25  and  _27
REMARK    9  A    between atoms: _27  and  _28
REMARK   10  A    between atoms: _27  and  _30
REMARK   11  A    between atoms: _30  and  _31
REMARK   12  A    between atoms: _34  and  _36
REMARK   13  A    between atoms: _36  and  _37
REMARK   14  A    between atoms: _36  and  _39
REMARK   15  A    between atoms: _39  and  _40
REMARK   16  A    between atoms: _43  and  _45
REMARK   17  A    between atoms: _45  and  _46
REMARK   18  A    between atoms: _45  and  _48
REMARK   19  A    between atoms: _48  and  _49
REMARK   20  A    between atoms: _52  and  _54
REMARK   21  A    between atoms: _54  and  _55
REMARK   22  A    between atoms: _57  and  _59
REMARK   23  A    between atoms: _59  and  _60
REMARK   24  A    between atoms: _59  and  _62
REMARK   25  A    between atoms: _62  and  _63
REMARK   26  A    between atoms: _63  and  _64
REMARK   27  A    between atoms: _64  and  _65
REMARK   28  A    between atoms: _74  and  _76
REMARK   29  A    between atoms: _76  and  _77
REMARK   30  A    between atoms: _76  and  _79
REMARK   31  A    between atoms: _79  and  _80
REMARK   32  A    between atoms: _85  and  _86
REMARK   33  A    between atoms: _88  and  _90
REMARK   34  A    between atoms: _90  and  _91
REMARK   35  A    between atoms: _90  and  _93
REMARK   36  A    between atoms: _93  and  _94
REMARK   37  A    between atoms: _94  and  _95
REMARK   38  A    between atoms: _95  and  _96
REMARK   39  A    between atoms: _105  and  _107
REMARK   40  A    between atoms: _107  and  _108
REMARK   41  A    between atoms: _107  and  _110
REMARK   42  A    between atoms: _110  and  _111
REMARK   43  A    between atoms: _114  and  _116
REMARK   44  A    between atoms: _116  and  _117
REMARK   45  A    between atoms: _116  and  _119
REMARK   46  A    between atoms: _119  and  _120
REMARK   47  A    between atoms: _123  and  _125
REMARK   48  A    between atoms: _125  and  _126
REMARK   49  A    between atoms: _125  and  _128
REMARK   50  A    between atoms: _128  and  _129
REMARK   51  A    between atoms: _132  and  _134
REMARK   52  A    between atoms: _134  and  _135
REMARK   53  A    between atoms: _134  and  _137
REMARK   54  A    between atoms: _137  and  _138
REMARK   55  A    between atoms: _140  and  _142
REMARK   56  A    between atoms: _142  and  _143
REMARK   57  A    between atoms: _142  and  _145
REMARK   58  A    between atoms: _145  and  _146
REMARK   59  A    between atoms: _148  and  _150
REMARK   60  A    between atoms: _150  and  _151
REMARK   61  A    between atoms: _150  and  _153
REMARK   62  A    between atoms: _153  and  _154
REMARK   63  A    between atoms: _160  and  _162
REMARK   64  A    between atoms: _162  and  _163
REMARK   65  A    between atoms: _162  and  _165
REMARK   66  A    between atoms: _165  and  _166
REMARK   67  A    between atoms: _166  and  _167
REMARK   68  A    between atoms: _169  and  _171
REMARK   69  A    between atoms: _171  and  _172
REMARK   70  A    between atoms: _171  and  _174
REMARK   71  A    between atoms: _174  and  _175
REMARK   72  A    between atoms: _178  and  _180
REMARK   73  A    between atoms: _180  and  _181
REMARK   74  A    between atoms: _180  and  _183
REMARK   75  A    between atoms: _183  and  _184
REMARK   76  A    between atoms: _189  and  _191
REMARK   77  A    between atoms: _191  and  _192
REMARK   78  A    between atoms: _191  and  _194
REMARK   79  A    between atoms: _194  and  _195
REMARK   80  A    between atoms: _198  and  _200
REMARK   81  A    between atoms: _200  and  _201
REMARK   82  A    between atoms: _200  and  _203
REMARK   83  A    between atoms: _203  and  _204
REMARK   84  A    between atoms: _207  and  _209
REMARK   85  A    between atoms: _209  and  _210
REMARK   86  A    between atoms: _209  and  _212
REMARK   87  A    between atoms: _212  and  _213
REMARK   88  A    between atoms: _213  and  _214
REMARK   89  A    between atoms: _214  and  _215
REMARK   90  A    between atoms: _215  and  _216
REMARK   91  A    between atoms: _220  and  _222
REMARK   92  A    between atoms: _222  and  _223
REMARK   93  A    between atoms: _222  and  _225
REMARK   94  A    between atoms: _225  and  _226
REMARK   95  A    between atoms: _229  and  _231
REMARK   96  A    between atoms: _231  and  _232
REMARK   97  A    between atoms: _234  and  _236
REMARK   98  A    between atoms: _236  and  _237
REMARK   99  A    between atoms: _236  and  _239
REMARK  100  A    between atoms: _239  and  _240
REMARK  101  A    between atoms: _240  and  _241
REMARK  102  A    between atoms: _241  and  _242
REMARK  103  A    between atoms: _251  and  _253
REMARK  104  A    between atoms: _253  and  _254
REMARK  105  A    between atoms: _253  and  _256
REMARK  106  A    between atoms: _256  and  _257
REMARK  107  A    between atoms: _257  and  _258
REMARK  108  A    between atoms: _258  and  _259
REMARK  109  A    between atoms: _268  and  _270
REMARK  110  A    between atoms: _270  and  _271
REMARK  111  A    between atoms: _270  and  _273
REMARK  112  A    between atoms: _276  and  _278
REMARK  113  A    between atoms: _278  and  _279
REMARK  114  A    between atoms: _278  and  _281
REMARK  115  A    between atoms: _284  and  _286
REMARK  116  A    between atoms: _286  and  _287
REMARK  117  A    between atoms: _286  and  _289
REMARK  118  A    between atoms: _289  and  _290
REMARK                            x       y       z     vdW  Elec       q    Type
REMARK                         _______ _______ _______ _____ _____    ______ ____
ROOT
ATOM      1  O   HOH     1      13.534  -8.103  33.313  0.00  0.00    +0.000 OA
ENDROOT
TORSDOF 0
REMARK  Name = ../refined-set-2016/4ijh/4ijh_pocket.pdb
REMARK  118 active torsions:
REMARK  status: ('A' for Active; 'I' for Inactive)
REMARK    1  A    between atoms: _1  and  _3
REMARK    2  A    between atoms: _3  and  _4
REMARK    3  A    between atoms: _3  and  _6
REMARK    4  A    between atoms: _6  and  _7
REMARK    5  A    between atoms: _7  and  _8
REMARK    6  A    between atoms: _8  and  _9
REMARK    7  A    between atoms: _19  and  _20
REMARK    8  A    between atoms: _25  and  _27
REMARK    9  A    between atoms: _27  and  _28
REMARK   10  A    between atoms: _27  and  _30
REMARK   11  A    between atoms: _30  and  _31
REMARK   12  A    between atoms: _34  and  _36
REMARK   13  A    between atoms: _36  and  _37
REMARK   14  A    between atoms: _36  and  _39
REMARK   15  A    between atoms: _39  and  _40
REMARK   16  A    between atoms: _43  and  _45
REMARK   17  A    between atoms: _45  and  _46
REMARK   18  A    between atoms: _45  and  _48
REMARK   19  A    between atoms: _48  and  _49
REMARK   20  A    between atoms: _52  and  _54
REMARK   21  A    between atoms: _54  and  _55
REMARK   22  A    between atoms: _57  and  _59
REMARK   23  A    between atoms: _59  and  _60
REMARK   24  A    between atoms: _59  and  _62
REMARK   25  A    between atoms: _62  and  _63
REMARK   26  A    between atoms: _63  and  _64
REMARK   27  A    between atoms: _64  and  _65
REMARK   28  A    between atoms: _74  and  _76
REMARK   29  A    between atoms: _76  and  _77
REMARK   30  A    between atoms: _76  and  _79
REMARK   31  A    between atoms: _79  and  _80
REMARK   32  A    between atoms: _85  and  _86
REMARK   33  A    between atoms: _88  and  _90
REMARK   34  A    between atoms: _90  and  _91
REMARK   35  A    between atoms: _90  and  _93
REMARK   36  A    between atoms: _93  and  _94
REMARK   37  A    between atoms: _94  and  _95
REMARK   38  A    between atoms: _95  and  _96
REMARK   39  A    between atoms: _105  and  _107
REMARK   40  A    between atoms: _107  and  _108
REMARK   41  A    between atoms: _107  and  _110
REMARK   42  A    between atoms: _110  and  _111
REMARK   43  A    between atoms: _114  and  _116
REMARK   44  A    between atoms: _116  and  _117
REMARK   45  A    between atoms: _116  and  _119
REMARK   46  A    between atoms: _119  and  _120
REMARK   47  A    between atoms: _123  and  _125
REMARK   48  A    between atoms: _125  and  _126
REMARK   49  A    between atoms: _125  and  _128
REMARK   50  A    between atoms: _128  and  _129
REMARK   51  A    between atoms: _132  and  _134
REMARK   52  A    between atoms: _134  and  _135
REMARK   53  A    between atoms: _134  and  _137
REMARK   54  A    between atoms: _137  and  _138
REMARK   55  A    between atoms: _140  and  _142
REMARK   56  A    between atoms: _142  and  _143
REMARK   57  A    between atoms: _142  and  _145
REMARK   58  A    between atoms: _145  and  _146
REMARK   59  A    between atoms: _148  and  _150
REMARK   60  A    between atoms: _150  and  _151
REMARK   61  A    between atoms: _150  and  _153
REMARK   62  A    between atoms: _153  and  _154
REMARK   63  A    between atoms: _160  and  _162
REMARK   64  A    between atoms: _162  and  _163
REMARK   65  A    between atoms: _162  and  _165
REMARK   66  A    between atoms: _165  and  _166
REMARK   67  A    between atoms: _166  and  _167
REMARK   68  A    between atoms: _169  and  _171
REMARK   69  A    between atoms: _171  and  _172
REMARK   70  A    between atoms: _171  and  _174
REMARK   71  A    between atoms: _174  and  _175
REMARK   72  A    between atoms: _178  and  _180
REMARK   73  A    between atoms: _180  and  _181
REMARK   74  A    between atoms: _180  and  _183
REMARK   75  A    between atoms: _183  and  _184
REMARK   76  A    between atoms: _189  and  _191
REMARK   77  A    between atoms: _191  and  _192
REMARK   78  A    between atoms: _191  and  _194
REMARK   79  A    between atoms: _194  and  _195
REMARK   80  A    between atoms: _198  and  _200
REMARK   81  A    between atoms: _200  and  _201
REMARK   82  A    between atoms: _200  and  _203
REMARK   83  A    between atoms: _203  and  _204
REMARK   84  A    between atoms: _207  and  _209
REMARK   85  A    between atoms: _209  and  _210
REMARK   86  A    between atoms: _209  and  _212
REMARK   87  A    between atoms: _212  and  _213
REMARK   88  A    between atoms: _213  and  _214
REMARK   89  A    between atoms: _214  and  _215
REMARK   90  A    between atoms: _215  and  _216
REMARK   91  A    between atoms: _220  and  _222
REMARK   92  A    between atoms: _222  and  _223
REMARK   93  A    between atoms: _222  and  _225
REMARK   94  A    between atoms: _225  and  _226
REMARK   95  A    between atoms: _229  and  _231
REMARK   96  A    between atoms: _231  and  _232
REMARK   97  A    between atoms: _234  and  _236
REMARK   98  A    between atoms: _236  and  _237
REMARK   99  A    between atoms: _236  and  _239
REMARK  100  A    between atoms: _239  and  _240
REMARK  101  A    between atoms: _240  and  _241
REMARK  102  A    between atoms: _241  and  _242
REMARK  103  A    between atoms: _251  and  _253
REMARK  104  A    between atoms: _253  and  _254
REMARK  105  A    between atoms: _253  and  _256
REMARK  106  A    between atoms: _256  and  _257
REMARK  107  A    between atoms: _257  and  _258
REMARK  108  A    between atoms: _258  and  _259
REMARK  109  A    between atoms: _268  and  _270
REMARK  110  A    between atoms: _270  and  _271
REMARK  111  A    between atoms: _270  and  _273
REMARK  112  A    between atoms: _276  and  _278
REMARK  113  A    between atoms: _278  and  _279
REMARK  114  A    between atoms: _278  and  _281
REMARK  115  A    between atoms: _284  and  _286
REMARK  116  A    between atoms: _286  and  _287
REMARK  117  A    between atoms: _286  and  _289
REMARK  118  A    between atoms: _289  and  _290
REMARK                            x       y       z     vdW  Elec       q    Type
REMARK                         _______ _______ _______ _____ _____    ______ ____
ROOT
ATOM      1  O   HOH     1      12.580 -22.917  22.769  0.00  0.00    +0.000 OA
ENDROOT
TORSDOF 0
REMARK  Name = ../refined-set-2016/4ijh/4ijh_pocket.pdb
REMARK  118 active torsions:
REMARK  status: ('A' for Active; 'I' for Inactive)
REMARK    1  A    between atoms: _1  and  _3
REMARK    2  A    between atoms: _3  and  _4
REMARK    3  A    between atoms: _3  and  _6
REMARK    4  A    between atoms: _6  and  _7
REMARK    5  A    between atoms: _7  and  _8
REMARK    6  A    between atoms: _8  and  _9
REMARK    7  A    between atoms: _19  and  _20
REMARK    8  A    between atoms: _25  and  _27
REMARK    9  A    between atoms: _27  and  _28
REMARK   10  A    between atoms: _27  and  _30
REMARK   11  A    between atoms: _30  and  _31
REMARK   12  A    between atoms: _34  and  _36
REMARK   13  A    between atoms: _36  and  _37
REMARK   14  A    between atoms: _36  and  _39
REMARK   15  A    between atoms: _39  and  _40
REMARK   16  A    between atoms: _43  and  _45
REMARK   17  A    between atoms: _45  and  _46
REMARK   18  A    between atoms: _45  and  _48
REMARK   19  A    between atoms: _48  and  _49
REMARK   20  A    between atoms: _52  and  _54
REMARK   21  A    between atoms: _54  and  _55
REMARK   22  A    between atoms: _57  and  _59
REMARK   23  A    between atoms: _59  and  _60
REMARK   24  A    between atoms: _59  and  _62
REMARK   25  A    between atoms: _62  and  _63
REMARK   26  A    between atoms: _63  and  _64
REMARK   27  A    between atoms: _64  and  _65
REMARK   28  A    between atoms: _74  and  _76
REMARK   29  A    between atoms: _76  and  _77
REMARK   30  A    between atoms: _76  and  _79
REMARK   31  A    between atoms: _79  and  _80
REMARK   32  A    between atoms: _85  and  _86
REMARK   33  A    between atoms: _88  and  _90
REMARK   34  A    between atoms: _90  and  _91
REMARK   35  A    between atoms: _90  and  _93
REMARK   36  A    between atoms: _93  and  _94
REMARK   37  A    between atoms: _94  and  _95
REMARK   38  A    between atoms: _95  and  _96
REMARK   39  A    between atoms: _105  and  _107
REMARK   40  A    between atoms: _107  and  _108
REMARK   41  A    between atoms: _107  and  _110
REMARK   42  A    between atoms: _110  and  _111
REMARK   43  A    between atoms: _114  and  _116
REMARK   44  A    between atoms: _116  and  _117
REMARK   45  A    between atoms: _116  and  _119
REMARK   46  A    between atoms: _119  and  _120
REMARK   47  A    between atoms: _123  and  _125
REMARK   48  A    between atoms: _125  and  _126
REMARK   49  A    between atoms: _125  and  _128
REMARK   50  A    between atoms: _128  and  _129
REMARK   51  A    between atoms: _132  and  _134
REMARK   52  A    between atoms: _134  and  _135
REMARK   53  A    between atoms: _134  and  _137
REMARK   54  A    between atoms: _137  and  _138
REMARK   55  A    between atoms: _140  and  _142
REMARK   56  A    between atoms: _142  and  _143
REMARK   57  A    between atoms: _142  and  _145
REMARK   58  A    between atoms: _145  and  _146
REMARK   59  A    between atoms: _148  and  _150
REMARK   60  A    between atoms: _150  and  _151
REMARK   61  A    between atoms: _150  and  _153
REMARK   62  A    between atoms: _153  and  _154
REMARK   63  A    between atoms: _160  and  _162
REMARK   64  A    between atoms: _162  and  _163
REMARK   65  A    between atoms: _162  and  _165
REMARK   66  A    between atoms: _165  and  _166
REMARK   67  A    between atoms: _166  and  _167
REMARK   68  A    between atoms: _169  and  _171
REMARK   69  A    between atoms: _171  and  _172
REMARK   70  A    between atoms: _171  and  _174
REMARK   71  A    between atoms: _174  and  _175
REMARK   72  A    between atoms: _178  and  _180
REMARK   73  A    between atoms: _180  and  _181
REMARK   74  A    between atoms: _180  and  _183
REMARK   75  A    between atoms: _183  and  _184
REMARK   76  A    between atoms: _189  and  _191
REMARK   77  A    between atoms: _191  and  _192
REMARK   78  A    between atoms: _191  and  _194
REMARK   79  A    between atoms: _194  and  _195
REMARK   80  A    between atoms: _198  and  _200
REMARK   81  A    between atoms: _200  and  _201
REMARK   82  A    between atoms: _200  and  _203
REMARK   83  A    between atoms: _203  and  _204
REMARK   84  A    between atoms: _207  and  _209
REMARK   85  A    between atoms: _209  and  _210
REMARK   86  A    between atoms: _209  and  _212
REMARK   87  A    between atoms: _212  and  _213
REMARK   88  A    between atoms: _213  and  _214
REMARK   89  A    between atoms: _214  and  _215
REMARK   90  A    between atoms: _215  and  _216
REMARK   91  A    between atoms: _220  and  _222
REMARK   92  A    between atoms: _222  and  _223
REMARK   93  A    between atoms: _222  and  _225
REMARK   94  A    between atoms: _225  and  _226
REMARK   95  A    between atoms: _229  and  _231
REMARK   96  A    between atoms: _231  and  _232
REMARK   97  A    between atoms: _234  and  _236
REMARK   98  A    between atoms: _236  and  _237
REMARK   99  A    between atoms: _236  and  _239
REMARK  100  A    between atoms: _239  and  _240
REMARK  101  A    between atoms: _240  and  _241
REMARK  102  A    between atoms: _241  and  _242
REMARK  103  A    between atoms: _251  and  _253
REMARK  104  A    between atoms: _253  and  _254
REMARK  105  A    between atoms: _253  and  _256
REMARK  106  A    between atoms: _256  and  _257
REMARK  107  A    between atoms: _257  and  _258
REMARK  108  A    between atoms: _258  and  _259
REMARK  109  A    between atoms: _268  and  _270
REMARK  110  A    between atoms: _270  and  _271
REMARK  111  A    between atoms: _270  and  _273
REMARK  112  A    between atoms: _276  and  _278
REMARK  113  A    between atoms: _278  and  _279
REMARK  114  A    between atoms: _278  and  _281
REMARK  115  A    between atoms: _284  and  _286
REMARK  116  A    between atoms: _286  and  _287
REMARK  117  A    between atoms: _286  and  _289
REMARK  118  A    between atoms: _289  and  _290
REMARK                            x       y       z     vdW  Elec       q    Type
REMARK                         _______ _______ _______ _____ _____    ______ ____
ROOT
ATOM      1  O   HOH     1      18.197 -10.745  16.403  0.00  0.00    +0.000 OA
ENDROOT
TORSDOF 0
REMARK  Name = ../refined-set-2016/4ijh/4ijh_pocket.pdb
REMARK  118 active torsions:
REMARK  status: ('A' for Active; 'I' for Inactive)
REMARK    1  A    between atoms: _1  and  _3
REMARK    2  A    between atoms: _3  and  _4
REMARK    3  A    between atoms: _3  and  _6
REMARK    4  A    between atoms: _6  and  _7
REMARK    5  A    between atoms: _7  and  _8
REMARK    6  A    between atoms: _8  and  _9
REMARK    7  A    between atoms: _19  and  _20
REMARK    8  A    between atoms: _25  and  _27
REMARK    9  A    between atoms: _27  and  _28
REMARK   10  A    between atoms: _27  and  _30
REMARK   11  A    between atoms: _30  and  _31
REMARK   12  A    between atoms: _34  and  _36
REMARK   13  A    between atoms: _36  and  _37
REMARK   14  A    between atoms: _36  and  _39
REMARK   15  A    between atoms: _39  and  _40
REMARK   16  A    between atoms: _43  and  _45
REMARK   17  A    between atoms: _45  and  _46
REMARK   18  A    between atoms: _45  and  _48
REMARK   19  A    between atoms: _48  and  _49
REMARK   20  A    between atoms: _52  and  _54
REMARK   21  A    between atoms: _54  and  _55
REMARK   22  A    between atoms: _57  and  _59
REMARK   23  A    between atoms: _59  and  _60
REMARK   24  A    between atoms: _59  and  _62
REMARK   25  A    between atoms: _62  and  _63
REMARK   26  A    between atoms: _63  and  _64
REMARK   27  A    between atoms: _64  and  _65
REMARK   28  A    between atoms: _74  and  _76
REMARK   29  A    between atoms: _76  and  _77
REMARK   30  A    between atoms: _76  and  _79
REMARK   31  A    between atoms: _79  and  _80
REMARK   32  A    between atoms: _85  and  _86
REMARK   33  A    between atoms: _88  and  _90
REMARK   34  A    between atoms: _90  and  _91
REMARK   35  A    between atoms: _90  and  _93
REMARK   36  A    between atoms: _93  and  _94
REMARK   37  A    between atoms: _94  and  _95
REMARK   38  A    between atoms: _95  and  _96
REMARK   39  A    between atoms: _105  and  _107
REMARK   40  A    between atoms: _107  and  _108
REMARK   41  A    between atoms: _107  and  _110
REMARK   42  A    between atoms: _110  and  _111
REMARK   43  A    between atoms: _114  and  _116
REMARK   44  A    between atoms: _116  and  _117
REMARK   45  A    between atoms: _116  and  _119
REMARK   46  A    between atoms: _119  and  _120
REMARK   47  A    between atoms: _123  and  _125
REMARK   48  A    between atoms: _125  and  _126
REMARK   49  A    between atoms: _125  and  _128
REMARK   50  A    between atoms: _128  and  _129
REMARK   51  A    between atoms: _132  and  _134
REMARK   52  A    between atoms: _134  and  _135
REMARK   53  A    between atoms: _134  and  _137
REMARK   54  A    between atoms: _137  and  _138
REMARK   55  A    between atoms: _140  and  _142
REMARK   56  A    between atoms: _142  and  _143
REMARK   57  A    between atoms: _142  and  _145
REMARK   58  A    between atoms: _145  and  _146
REMARK   59  A    between atoms: _148  and  _150
REMARK   60  A    between atoms: _150  and  _151
REMARK   61  A    between atoms: _150  and  _153
REMARK   62  A    between atoms: _153  and  _154
REMARK   63  A    between atoms: _160  and  _162
REMARK   64  A    between atoms: _162  and  _163
REMARK   65  A    between atoms: _162  and  _165
REMARK   66  A    between atoms: _165  and  _166
REMARK   67  A    between atoms: _166  and  _167
REMARK   68  A    between atoms: _169  and  _171
REMARK   69  A    between atoms: _171  and  _172
REMARK   70  A    between atoms: _171  and  _174
REMARK   71  A    between atoms: _174  and  _175
REMARK   72  A    between atoms: _178  and  _180
REMARK   73  A    between atoms: _180  and  _181
REMARK   74  A    between atoms: _180  and  _183
REMARK   75  A    between atoms: _183  and  _184
REMARK   76  A    between atoms: _189  and  _191
REMARK   77  A    between atoms: _191  and  _192
REMARK   78  A    between atoms: _191  and  _194
REMARK   79  A    between atoms: _194  and  _195
REMARK   80  A    between atoms: _198  and  _200
REMARK   81  A    between atoms: _200  and  _201
REMARK   82  A    between atoms: _200  and  _203
REMARK   83  A    between atoms: _203  and  _204
REMARK   84  A    between atoms: _207  and  _209
REMARK   85  A    between atoms: _209  and  _210
REMARK   86  A    between atoms: _209  and  _212
REMARK   87  A    between atoms: _212  and  _213
REMARK   88  A    between atoms: _213  and  _214
REMARK   89  A    between atoms: _214  and  _215
REMARK   90  A    between atoms: _215  and  _216
REMARK   91  A    between atoms: _220  and  _222
REMARK   92  A    between atoms: _222  and  _223
REMARK   93  A    between atoms: _222  and  _225
REMARK   94  A    between atoms: _225  and  _226
REMARK   95  A    between atoms: _229  and  _231
REMARK   96  A    between atoms: _231  and  _232
REMARK   97  A    between atoms: _234  and  _236
REMARK   98  A    between atoms: _236  and  _237
REMARK   99  A    between atoms: _236  and  _239
REMARK  100  A    between atoms: _239  and  _240
REMARK  101  A    between atoms: _240  and  _241
REMARK  102  A    between atoms: _241  and  _242
REMARK  103  A    between atoms: _251  and  _253
REMARK  104  A    between atoms: _253  and  _254
REMARK  105  A    between atoms: _253  and  _256
REMARK  106  A    between atoms: _256  and  _257
REMARK  107  A    between atoms: _257  and  _258
REMARK  108  A    between atoms: _258  and  _259
REMARK  109  A    between atoms: _268  and  _270
REMARK  110  A    between atoms: _270  and  _271
REMARK  111  A    between atoms: _270  and  _273
REMARK  112  A    between atoms: _276  and  _278
REMARK  113  A    between atoms: _278  and  _279
REMARK  114  A    between atoms: _278  and  _281
REMARK  115  A    between atoms: _284  and  _286
REMARK  116  A    between atoms: _286  and  _287
REMARK  117  A    between atoms: _286  and  _289
REMARK  118  A    between atoms: _289  and  _290
REMARK                            x       y       z     vdW  Elec       q    Type
REMARK                         _______ _______ _______ _____ _____    ______ ____
ROOT
ATOM      1  O   HOH     1      20.392 -11.950  20.950  0.00  0.00    +0.000 OA
ENDROOT
TORSDOF 0
REMARK  Name = ../refined-set-2016/4ijh/4ijh_pocket.pdb
REMARK  118 active torsions:
REMARK  status: ('A' for Active; 'I' for Inactive)
REMARK    1  A    between atoms: _1  and  _3
REMARK    2  A    between atoms: _3  and  _4
REMARK    3  A    between atoms: _3  and  _6
REMARK    4  A    between atoms: _6  and  _7
REMARK    5  A    between atoms: _7  and  _8
REMARK    6  A    between atoms: _8  and  _9
REMARK    7  A    between atoms: _19  and  _20
REMARK    8  A    between atoms: _25  and  _27
REMARK    9  A    between atoms: _27  and  _28
REMARK   10  A    between atoms: _27  and  _30
REMARK   11  A    between atoms: _30  and  _31
REMARK   12  A    between atoms: _34  and  _36
REMARK   13  A    between atoms: _36  and  _37
REMARK   14  A    between atoms: _36  and  _39
REMARK   15  A    between atoms: _39  and  _40
REMARK   16  A    between atoms: _43  and  _45
REMARK   17  A    between atoms: _45  and  _46
REMARK   18  A    between atoms: _45  and  _48
REMARK   19  A    between atoms: _48  and  _49
REMARK   20  A    between atoms: _52  and  _54
REMARK   21  A    between atoms: _54  and  _55
REMARK   22  A    between atoms: _57  and  _59
REMARK   23  A    between atoms: _59  and  _60
REMARK   24  A    between atoms: _59  and  _62
REMARK   25  A    between atoms: _62  and  _63
REMARK   26  A    between atoms: _63  and  _64
REMARK   27  A    between atoms: _64  and  _65
REMARK   28  A    between atoms: _74  and  _76
REMARK   29  A    between atoms: _76  and  _77
REMARK   30  A    between atoms: _76  and  _79
REMARK   31  A    between atoms: _79  and  _80
REMARK   32  A    between atoms: _85  and  _86
REMARK   33  A    between atoms: _88  and  _90
REMARK   34  A    between atoms: _90  and  _91
REMARK   35  A    between atoms: _90  and  _93
REMARK   36  A    between atoms: _93  and  _94
REMARK   37  A    between atoms: _94  and  _95
REMARK   38  A    between atoms: _95  and  _96
REMARK   39  A    between atoms: _105  and  _107
REMARK   40  A    between atoms: _107  and  _108
REMARK   41  A    between atoms: _107  and  _110
REMARK   42  A    between atoms: _110  and  _111
REMARK   43  A    between atoms: _114  and  _116
REMARK   44  A    between atoms: _116  and  _117
REMARK   45  A    between atoms: _116  and  _119
REMARK   46  A    between atoms: _119  and  _120
REMARK   47  A    between atoms: _123  and  _125
REMARK   48  A    between atoms: _125  and  _126
REMARK   49  A    between atoms: _125  and  _128
REMARK   50  A    between atoms: _128  and  _129
REMARK   51  A    between atoms: _132  and  _134
REMARK   52  A    between atoms: _134  and  _135
REMARK   53  A    between atoms: _134  and  _137
REMARK   54  A    between atoms: _137  and  _138
REMARK   55  A    between atoms: _140  and  _142
REMARK   56  A    between atoms: _142  and  _143
REMARK   57  A    between atoms: _142  and  _145
REMARK   58  A    between atoms: _145  and  _146
REMARK   59  A    between atoms: _148  and  _150
REMARK   60  A    between atoms: _150  and  _151
REMARK   61  A    between atoms: _150  and  _153
REMARK   62  A    between atoms: _153  and  _154
REMARK   63  A    between atoms: _160  and  _162
REMARK   64  A    between atoms: _162  and  _163
REMARK   65  A    between atoms: _162  and  _165
REMARK   66  A    between atoms: _165  and  _166
REMARK   67  A    between atoms: _166  and  _167
REMARK   68  A    between atoms: _169  and  _171
REMARK   69  A    between atoms: _171  and  _172
REMARK   70  A    between atoms: _171  and  _174
REMARK   71  A    between atoms: _174  and  _175
REMARK   72  A    between atoms: _178  and  _180
REMARK   73  A    between atoms: _180  and  _181
REMARK   74  A    between atoms: _180  and  _183
REMARK   75  A    between atoms: _183  and  _184
REMARK   76  A    between atoms: _189  and  _191
REMARK   77  A    between atoms: _191  and  _192
REMARK   78  A    between atoms: _191  and  _194
REMARK   79  A    between atoms: _194  and  _195
REMARK   80  A    between atoms: _198  and  _200
REMARK   81  A    between atoms: _200  and  _201
REMARK   82  A    between atoms: _200  and  _203
REMARK   83  A    between atoms: _203  and  _204
REMARK   84  A    between atoms: _207  and  _209
REMARK   85  A    between atoms: _209  and  _210
REMARK   86  A    between atoms: _209  and  _212
REMARK   87  A    between atoms: _212  and  _213
REMARK   88  A    between atoms: _213  and  _214
REMARK   89  A    between atoms: _214  and  _215
REMARK   90  A    between atoms: _215  and  _216
REMARK   91  A    between atoms: _220  and  _222
REMARK   92  A    between atoms: _222  and  _223
REMARK   93  A    between atoms: _222  and  _225
REMARK   94  A    between atoms: _225  and  _226
REMARK   95  A    between atoms: _229  and  _231
REMARK   96  A    between atoms: _231  and  _232
REMARK   97  A    between atoms: _234  and  _236
REMARK   98  A    between atoms: _236  and  _237
REMARK   99  A    between atoms: _236  and  _239
REMARK  100  A    between atoms: _239  and  _240
REMARK  101  A    between atoms: _240  and  _241
REMARK  102  A    between atoms: _241  and  _242
REMARK  103  A    between atoms: _251  and  _253
REMARK  104  A    between atoms: _253  and  _254
REMARK  105  A    between atoms: _253  and  _256
REMARK  106  A    between atoms: _256  and  _257
REMARK  107  A    between atoms: _257  and  _258
REMARK  108  A    between atoms: _258  and  _259
REMARK  109  A    between atoms: _268  and  _270
REMARK  110  A    between atoms: _270  and  _271
REMARK  111  A    between atoms: _270  and  _273
REMARK  112  A    between atoms: _276  and  _278
REMARK  113  A    between atoms: _278  and  _279
REMARK  114  A    between atoms: _278  and  _281
REMARK  115  A    between atoms: _284  and  _286
REMARK  116  A    between atoms: _286  and  _287
REMARK  117  A    between atoms: _286  and  _289
REMARK  118  A    between atoms: _289  and  _290
REMARK                            x       y       z     vdW  Elec       q    Type
REMARK                         _______ _______ _______ _____ _____    ______ ____
ROOT
ATOM      1  O   HOH     1      14.837  -4.323  22.341  0.00  0.00    +0.000 OA
ENDROOT
TORSDOF 0
REMARK  Name = ../refined-set-2016/4ijh/4ijh_pocket.pdb
REMARK  118 active torsions:
REMARK  status: ('A' for Active; 'I' for Inactive)
REMARK    1  A    between atoms: _1  and  _3
REMARK    2  A    between atoms: _3  and  _4
REMARK    3  A    between atoms: _3  and  _6
REMARK    4  A    between atoms: _6  and  _7
REMARK    5  A    between atoms: _7  and  _8
REMARK    6  A    between atoms: _8  and  _9
REMARK    7  A    between atoms: _19  and  _20
REMARK    8  A    between atoms: _25  and  _27
REMARK    9  A    between atoms: _27  and  _28
REMARK   10  A    between atoms: _27  and  _30
REMARK   11  A    between atoms: _30  and  _31
REMARK   12  A    between atoms: _34  and  _36
REMARK   13  A    between atoms: _36  and  _37
REMARK   14  A    between atoms: _36  and  _39
REMARK   15  A    between atoms: _39  and  _40
REMARK   16  A    between atoms: _43  and  _45
REMARK   17  A    between atoms: _45  and  _46
REMARK   18  A    between atoms: _45  and  _48
REMARK   19  A    between atoms: _48  and  _49
REMARK   20  A    between atoms: _52  and  _54
REMARK   21  A    between atoms: _54  and  _55
REMARK   22  A    between atoms: _57  and  _59
REMARK   23  A    between atoms: _59  and  _60
REMARK   24  A    between atoms: _59  and  _62
REMARK   25  A    between atoms: _62  and  _63
REMARK   26  A    between atoms: _63  and  _64
REMARK   27  A    between atoms: _64  and  _65
REMARK   28  A    between atoms: _74  and  _76
REMARK   29  A    between atoms: _76  and  _77
REMARK   30  A    between atoms: _76  and  _79
REMARK   31  A    between atoms: _79  and  _80
REMARK   32  A    between atoms: _85  and  _86
REMARK   33  A    between atoms: _88  and  _90
REMARK   34  A    between atoms: _90  and  _91
REMARK   35  A    between atoms: _90  and  _93
REMARK   36  A    between atoms: _93  and  _94
REMARK   37  A    between atoms: _94  and  _95
REMARK   38  A    between atoms: _95  and  _96
REMARK   39  A    between atoms: _105  and  _107
REMARK   40  A    between atoms: _107  and  _108
REMARK   41  A    between atoms: _107  and  _110
REMARK   42  A    between atoms: _110  and  _111
REMARK   43  A    between atoms: _114  and  _116
REMARK   44  A    between atoms: _116  and  _117
REMARK   45  A    between atoms: _116  and  _119
REMARK   46  A    between atoms: _119  and  _120
REMARK   47  A    between atoms: _123  and  _125
REMARK   48  A    between atoms: _125  and  _126
REMARK   49  A    between atoms: _125  and  _128
REMARK   50  A    between atoms: _128  and  _129
REMARK   51  A    between atoms: _132  and  _134
REMARK   52  A    between atoms: _134  and  _135
REMARK   53  A    between atoms: _134  and  _137
REMARK   54  A    between atoms: _137  and  _138
REMARK   55  A    between atoms: _140  and  _142
REMARK   56  A    between atoms: _142  and  _143
REMARK   57  A    between atoms: _142  and  _145
REMARK   58  A    between atoms: _145  and  _146
REMARK   59  A    between atoms: _148  and  _150
REMARK   60  A    between atoms: _150  and  _151
REMARK   61  A    between atoms: _150  and  _153
REMARK   62  A    between atoms: _153  and  _154
REMARK   63  A    between atoms: _160  and  _162
REMARK   64  A    between atoms: _162  and  _163
REMARK   65  A    between atoms: _162  and  _165
REMARK   66  A    between atoms: _165  and  _166
REMARK   67  A    between atoms: _166  and  _167
REMARK   68  A    between atoms: _169  and  _171
REMARK   69  A    between atoms: _171  and  _172
REMARK   70  A    between atoms: _171  and  _174
REMARK   71  A    between atoms: _174  and  _175
REMARK   72  A    between atoms: _178  and  _180
REMARK   73  A    between atoms: _180  and  _181
REMARK   74  A    between atoms: _180  and  _183
REMARK   75  A    between atoms: _183  and  _184
REMARK   76  A    between atoms: _189  and  _191
REMARK   77  A    between atoms: _191  and  _192
REMARK   78  A    between atoms: _191  and  _194
REMARK   79  A    between atoms: _194  and  _195
REMARK   80  A    between atoms: _198  and  _200
REMARK   81  A    between atoms: _200  and  _201
REMARK   82  A    between atoms: _200  and  _203
REMARK   83  A    between atoms: _203  and  _204
REMARK   84  A    between atoms: _207  and  _209
REMARK   85  A    between atoms: _209  and  _210
REMARK   86  A    between atoms: _209  and  _212
REMARK   87  A    between atoms: _212  and  _213
REMARK   88  A    between atoms: _213  and  _214
REMARK   89  A    between atoms: _214  and  _215
REMARK   90  A    between atoms: _215  and  _216
REMARK   91  A    between atoms: _220  and  _222
REMARK   92  A    between atoms: _222  and  _223
REMARK   93  A    between atoms: _222  and  _225
REMARK   94  A    between atoms: _225  and  _226
REMARK   95  A    between atoms: _229  and  _231
REMARK   96  A    between atoms: _231  and  _232
REMARK   97  A    between atoms: _234  and  _236
REMARK   98  A    between atoms: _236  and  _237
REMARK   99  A    between atoms: _236  and  _239
REMARK  100  A    between atoms: _239  and  _240
REMARK  101  A    between atoms: _240  and  _241
REMARK  102  A    between atoms: _241  and  _242
REMARK  103  A    between atoms: _251  and  _253
REMARK  104  A    between atoms: _253  and  _254
REMARK  105  A    between atoms: _253  and  _256
REMARK  106  A    between atoms: _256  and  _257
REMARK  107  A    between atoms: _257  and  _258
REMARK  108  A    between atoms: _258  and  _259
REMARK  109  A    between atoms: _268  and  _270
REMARK  110  A    between atoms: _270  and  _271
REMARK  111  A    between atoms: _270  and  _273
REMARK  112  A    between atoms: _276  and  _278
REMARK  113  A    between atoms: _278  and  _279
REMARK  114  A    between atoms: _278  and  _281
REMARK  115  A    between atoms: _284  and  _286
REMARK  116  A    between atoms: _286  and  _287
REMARK  117  A    between atoms: _286  and  _289
REMARK  118  A    between atoms: _289  and  _290
REMARK                            x       y       z     vdW  Elec       q    Type
REMARK                         _______ _______ _______ _____ _____    ______ ____
ROOT
ATOM      1  O   HOH     1      18.112  -6.081  22.927  0.00  0.00    +0.000 OA
ENDROOT
TORSDOF 0
REMARK  Name = ../refined-set-2016/4ijh/4ijh_pocket.pdb
REMARK  118 active torsions:
REMARK  status: ('A' for Active; 'I' for Inactive)
REMARK    1  A    between atoms: _1  and  _3
REMARK    2  A    between atoms: _3  and  _4
REMARK    3  A    between atoms: _3  and  _6
REMARK    4  A    between atoms: _6  and  _7
REMARK    5  A    between atoms: _7  and  _8
REMARK    6  A    between atoms: _8  and  _9
REMARK    7  A    between atoms: _19  and  _20
REMARK    8  A    between atoms: _25  and  _27
REMARK    9  A    between atoms: _27  and  _28
REMARK   10  A    between atoms: _27  and  _30
REMARK   11  A    between atoms: _30  and  _31
REMARK   12  A    between atoms: _34  and  _36
REMARK   13  A    between atoms: _36  and  _37
REMARK   14  A    between atoms: _36  and  _39
REMARK   15  A    between atoms: _39  and  _40
REMARK   16  A    between atoms: _43  and  _45
REMARK   17  A    between atoms: _45  and  _46
REMARK   18  A    between atoms: _45  and  _48
REMARK   19  A    between atoms: _48  and  _49
REMARK   20  A    between atoms: _52  and  _54
REMARK   21  A    between atoms: _54  and  _55
REMARK   22  A    between atoms: _57  and  _59
REMARK   23  A    between atoms: _59  and  _60
REMARK   24  A    between atoms: _59  and  _62
REMARK   25  A    between atoms: _62  and  _63
REMARK   26  A    between atoms: _63  and  _64
REMARK   27  A    between atoms: _64  and  _65
REMARK   28  A    between atoms: _74  and  _76
REMARK   29  A    between atoms: _76  and  _77
REMARK   30  A    between atoms: _76  and  _79
REMARK   31  A    between atoms: _79  and  _80
REMARK   32  A    between atoms: _85  and  _86
REMARK   33  A    between atoms: _88  and  _90
REMARK   34  A    between atoms: _90  and  _91
REMARK   35  A    between atoms: _90  and  _93
REMARK   36  A    between atoms: _93  and  _94
REMARK   37  A    between atoms: _94  and  _95
REMARK   38  A    between atoms: _95  and  _96
REMARK   39  A    between atoms: _105  and  _107
REMARK   40  A    between atoms: _107  and  _108
REMARK   41  A    between atoms: _107  and  _110
REMARK   42  A    between atoms: _110  and  _111
REMARK   43  A    between atoms: _114  and  _116
REMARK   44  A    between atoms: _116  and  _117
REMARK   45  A    between atoms: _116  and  _119
REMARK   46  A    between atoms: _119  and  _120
REMARK   47  A    between atoms: _123  and  _125
REMARK   48  A    between atoms: _125  and  _126
REMARK   49  A    between atoms: _125  and  _128
REMARK   50  A    between atoms: _128  and  _129
REMARK   51  A    between atoms: _132  and  _134
REMARK   52  A    between atoms: _134  and  _135
REMARK   53  A    between atoms: _134  and  _137
REMARK   54  A    between atoms: _137  and  _138
REMARK   55  A    between atoms: _140  and  _142
REMARK   56  A    between atoms: _142  and  _143
REMARK   57  A    between atoms: _142  and  _145
REMARK   58  A    between atoms: _145  and  _146
REMARK   59  A    between atoms: _148  and  _150
REMARK   60  A    between atoms: _150  and  _151
REMARK   61  A    between atoms: _150  and  _153
REMARK   62  A    between atoms: _153  and  _154
REMARK   63  A    between atoms: _160  and  _162
REMARK   64  A    between atoms: _162  and  _163
REMARK   65  A    between atoms: _162  and  _165
REMARK   66  A    between atoms: _165  and  _166
REMARK   67  A    between atoms: _166  and  _167
REMARK   68  A    between atoms: _169  and  _171
REMARK   69  A    between atoms: _171  and  _172
REMARK   70  A    between atoms: _171  and  _174
REMARK   71  A    between atoms: _174  and  _175
REMARK   72  A    between atoms: _178  and  _180
REMARK   73  A    between atoms: _180  and  _181
REMARK   74  A    between atoms: _180  and  _183
REMARK   75  A    between atoms: _183  and  _184
REMARK   76  A    between atoms: _189  and  _191
REMARK   77  A    between atoms: _191  and  _192
REMARK   78  A    between atoms: _191  and  _194
REMARK   79  A    between atoms: _194  and  _195
REMARK   80  A    between atoms: _198  and  _200
REMARK   81  A    between atoms: _200  and  _201
REMARK   82  A    between atoms: _200  and  _203
REMARK   83  A    between atoms: _203  and  _204
REMARK   84  A    between atoms: _207  and  _209
REMARK   85  A    between atoms: _209  and  _210
REMARK   86  A    between atoms: _209  and  _212
REMARK   87  A    between atoms: _212  and  _213
REMARK   88  A    between atoms: _213  and  _214
REMARK   89  A    between atoms: _214  and  _215
REMARK   90  A    between atoms: _215  and  _216
REMARK   91  A    between atoms: _220  and  _222
REMARK   92  A    between atoms: _222  and  _223
REMARK   93  A    between atoms: _222  and  _225
REMARK   94  A    between atoms: _225  and  _226
REMARK   95  A    between atoms: _229  and  _231
REMARK   96  A    between atoms: _231  and  _232
REMARK   97  A    between atoms: _234  and  _236
REMARK   98  A    between atoms: _236  and  _237
REMARK   99  A    between atoms: _236  and  _239
REMARK  100  A    between atoms: _239  and  _240
REMARK  101  A    between atoms: _240  and  _241
REMARK  102  A    between atoms: _241  and  _242
REMARK  103  A    between atoms: _251  and  _253
REMARK  104  A    between atoms: _253  and  _254
REMARK  105  A    between atoms: _253  and  _256
REMARK  106  A    between atoms: _256  and  _257
REMARK  107  A    between atoms: _257  and  _258
REMARK  108  A    between atoms: _258  and  _259
REMARK  109  A    between atoms: _268  and  _270
REMARK  110  A    between atoms: _270  and  _271
REMARK  111  A    between atoms: _270  and  _273
REMARK  112  A    between atoms: _276  and  _278
REMARK  113  A    between atoms: _278  and  _279
REMARK  114  A    between atoms: _278  and  _281
REMARK  115  A    between atoms: _284  and  _286
REMARK  116  A    between atoms: _286  and  _287
REMARK  117  A    between atoms: _286  and  _289
REMARK  118  A    between atoms: _289  and  _290
REMARK                            x       y       z     vdW  Elec       q    Type
REMARK                         _______ _______ _______ _____ _____    ______ ____
ROOT
ATOM      1  O   HOH     1      20.091  -7.761  22.153  0.00  0.00    +0.000 OA
ENDROOT
TORSDOF 0
REMARK  Name = ../refined-set-2016/4ijh/4ijh_pocket.pdb
REMARK  118 active torsions:
REMARK  status: ('A' for Active; 'I' for Inactive)
REMARK    1  A    between atoms: _1  and  _3
REMARK    2  A    between atoms: _3  and  _4
REMARK    3  A    between atoms: _3  and  _6
REMARK    4  A    between atoms: _6  and  _7
REMARK    5  A    between atoms: _7  and  _8
REMARK    6  A    between atoms: _8  and  _9
REMARK    7  A    between atoms: _19  and  _20
REMARK    8  A    between atoms: _25  and  _27
REMARK    9  A    between atoms: _27  and  _28
REMARK   10  A    between atoms: _27  and  _30
REMARK   11  A    between atoms: _30  and  _31
REMARK   12  A    between atoms: _34  and  _36
REMARK   13  A    between atoms: _36  and  _37
REMARK   14  A    between atoms: _36  and  _39
REMARK   15  A    between atoms: _39  and  _40
REMARK   16  A    between atoms: _43  and  _45
REMARK   17  A    between atoms: _45  and  _46
REMARK   18  A    between atoms: _45  and  _48
REMARK   19  A    between atoms: _48  and  _49
REMARK   20  A    between atoms: _52  and  _54
REMARK   21  A    between atoms: _54  and  _55
REMARK   22  A    between atoms: _57  and  _59
REMARK   23  A    between atoms: _59  and  _60
REMARK   24  A    between atoms: _59  and  _62
REMARK   25  A    between atoms: _62  and  _63
REMARK   26  A    between atoms: _63  and  _64
REMARK   27  A    between atoms: _64  and  _65
REMARK   28  A    between atoms: _74  and  _76
REMARK   29  A    between atoms: _76  and  _77
REMARK   30  A    between atoms: _76  and  _79
REMARK   31  A    between atoms: _79  and  _80
REMARK   32  A    between atoms: _85  and  _86
REMARK   33  A    between atoms: _88  and  _90
REMARK   34  A    between atoms: _90  and  _91
REMARK   35  A    between atoms: _90  and  _93
REMARK   36  A    between atoms: _93  and  _94
REMARK   37  A    between atoms: _94  and  _95
REMARK   38  A    between atoms: _95  and  _96
REMARK   39  A    between atoms: _105  and  _107
REMARK   40  A    between atoms: _107  and  _108
REMARK   41  A    between atoms: _107  and  _110
REMARK   42  A    between atoms: _110  and  _111
REMARK   43  A    between atoms: _114  and  _116
REMARK   44  A    between atoms: _116  and  _117
REMARK   45  A    between atoms: _116  and  _119
REMARK   46  A    between atoms: _119  and  _120
REMARK   47  A    between atoms: _123  and  _125
REMARK   48  A    between atoms: _125  and  _126
REMARK   49  A    between atoms: _125  and  _128
REMARK   50  A    between atoms: _128  and  _129
REMARK   51  A    between atoms: _132  and  _134
REMARK   52  A    between atoms: _134  and  _135
REMARK   53  A    between atoms: _134  and  _137
REMARK   54  A    between atoms: _137  and  _138
REMARK   55  A    between atoms: _140  and  _142
REMARK   56  A    between atoms: _142  and  _143
REMARK   57  A    between atoms: _142  and  _145
REMARK   58  A    between atoms: _145  and  _146
REMARK   59  A    between atoms: _148  and  _150
REMARK   60  A    between atoms: _150  and  _151
REMARK   61  A    between atoms: _150  and  _153
REMARK   62  A    between atoms: _153  and  _154
REMARK   63  A    between atoms: _160  and  _162
REMARK   64  A    between atoms: _162  and  _163
REMARK   65  A    between atoms: _162  and  _165
REMARK   66  A    between atoms: _165  and  _166
REMARK   67  A    between atoms: _166  and  _167
REMARK   68  A    between atoms: _169  and  _171
REMARK   69  A    between atoms: _171  and  _172
REMARK   70  A    between atoms: _171  and  _174
REMARK   71  A    between atoms: _174  and  _175
REMARK   72  A    between atoms: _178  and  _180
REMARK   73  A    between atoms: _180  and  _181
REMARK   74  A    between atoms: _180  and  _183
REMARK   75  A    between atoms: _183  and  _184
REMARK   76  A    between atoms: _189  and  _191
REMARK   77  A    between atoms: _191  and  _192
REMARK   78  A    between atoms: _191  and  _194
REMARK   79  A    between atoms: _194  and  _195
REMARK   80  A    between atoms: _198  and  _200
REMARK   81  A    between atoms: _200  and  _201
REMARK   82  A    between atoms: _200  and  _203
REMARK   83  A    between atoms: _203  and  _204
REMARK   84  A    between atoms: _207  and  _209
REMARK   85  A    between atoms: _209  and  _210
REMARK   86  A    between atoms: _209  and  _212
REMARK   87  A    between atoms: _212  and  _213
REMARK   88  A    between atoms: _213  and  _214
REMARK   89  A    between atoms: _214  and  _215
REMARK   90  A    between atoms: _215  and  _216
REMARK   91  A    between atoms: _220  and  _222
REMARK   92  A    between atoms: _222  and  _223
REMARK   93  A    between atoms: _222  and  _225
REMARK   94  A    between atoms: _225  and  _226
REMARK   95  A    between atoms: _229  and  _231
REMARK   96  A    between atoms: _231  and  _232
REMARK   97  A    between atoms: _234  and  _236
REMARK   98  A    between atoms: _236  and  _237
REMARK   99  A    between atoms: _236  and  _239
REMARK  100  A    between atoms: _239  and  _240
REMARK  101  A    between atoms: _240  and  _241
REMARK  102  A    between atoms: _241  and  _242
REMARK  103  A    between atoms: _251  and  _253
REMARK  104  A    between atoms: _253  and  _254
REMARK  105  A    between atoms: _253  and  _256
REMARK  106  A    between atoms: _256  and  _257
REMARK  107  A    between atoms: _257  and  _258
REMARK  108  A    between atoms: _258  and  _259
REMARK  109  A    between atoms: _268  and  _270
REMARK  110  A    between atoms: _270  and  _271
REMARK  111  A    between atoms: _270  and  _273
REMARK  112  A    between atoms: _276  and  _278
REMARK  113  A    between atoms: _278  and  _279
REMARK  114  A    between atoms: _278  and  _281
REMARK  115  A    between atoms: _284  and  _286
REMARK  116  A    between atoms: _286  and  _287
REMARK  117  A    between atoms: _286  and  _289
REMARK  118  A    between atoms: _289  and  _290
REMARK                            x       y       z     vdW  Elec       q    Type
REMARK                         _______ _______ _______ _____ _____    ______ ____
ROOT
ATOM      1  O   HOH     1      12.004  -7.886  31.076  0.00  0.00    +0.000 OA
ENDROOT
TORSDOF 0
REMARK  Name = ../refined-set-2016/4ijh/4ijh_pocket.pdb
REMARK  118 active torsions:
REMARK  status: ('A' for Active; 'I' for Inactive)
REMARK    1  A    between atoms: _1  and  _3
REMARK    2  A    between atoms: _3  and  _4
REMARK    3  A    between atoms: _3  and  _6
REMARK    4  A    between atoms: _6  and  _7
REMARK    5  A    between atoms: _7  and  _8
REMARK    6  A    between atoms: _8  and  _9
REMARK    7  A    between atoms: _19  and  _20
REMARK    8  A    between atoms: _25  and  _27
REMARK    9  A    between atoms: _27  and  _28
REMARK   10  A    between atoms: _27  and  _30
REMARK   11  A    between atoms: _30  and  _31
REMARK   12  A    between atoms: _34  and  _36
REMARK   13  A    between atoms: _36  and  _37
REMARK   14  A    between atoms: _36  and  _39
REMARK   15  A    between atoms: _39  and  _40
REMARK   16  A    between atoms: _43  and  _45
REMARK   17  A    between atoms: _45  and  _46
REMARK   18  A    between atoms: _45  and  _48
REMARK   19  A    between atoms: _48  and  _49
REMARK   20  A    between atoms: _52  and  _54
REMARK   21  A    between atoms: _54  and  _55
REMARK   22  A    between atoms: _57  and  _59
REMARK   23  A    between atoms: _59  and  _60
REMARK   24  A    between atoms: _59  and  _62
REMARK   25  A    between atoms: _62  and  _63
REMARK   26  A    between atoms: _63  and  _64
REMARK   27  A    between atoms: _64  and  _65
REMARK   28  A    between atoms: _74  and  _76
REMARK   29  A    between atoms: _76  and  _77
REMARK   30  A    between atoms: _76  and  _79
REMARK   31  A    between atoms: _79  and  _80
REMARK   32  A    between atoms: _85  and  _86
REMARK   33  A    between atoms: _88  and  _90
REMARK   34  A    between atoms: _90  and  _91
REMARK   35  A    between atoms: _90  and  _93
REMARK   36  A    between atoms: _93  and  _94
REMARK   37  A    between atoms: _94  and  _95
REMARK   38  A    between atoms: _95  and  _96
REMARK   39  A    between atoms: _105  and  _107
REMARK   40  A    between atoms: _107  and  _108
REMARK   41  A    between atoms: _107  and  _110
REMARK   42  A    between atoms: _110  and  _111
REMARK   43  A    between atoms: _114  and  _116
REMARK   44  A    between atoms: _116  and  _117
REMARK   45  A    between atoms: _116  and  _119
REMARK   46  A    between atoms: _119  and  _120
REMARK   47  A    between atoms: _123  and  _125
REMARK   48  A    between atoms: _125  and  _126
REMARK   49  A    between atoms: _125  and  _128
REMARK   50  A    between atoms: _128  and  _129
REMARK   51  A    between atoms: _132  and  _134
REMARK   52  A    between atoms: _134  and  _135
REMARK   53  A    between atoms: _134  and  _137
REMARK   54  A    between atoms: _137  and  _138
REMARK   55  A    between atoms: _140  and  _142
REMARK   56  A    between atoms: _142  and  _143
REMARK   57  A    between atoms: _142  and  _145
REMARK   58  A    between atoms: _145  and  _146
REMARK   59  A    between atoms: _148  and  _150
REMARK   60  A    between atoms: _150  and  _151
REMARK   61  A    between atoms: _150  and  _153
REMARK   62  A    between atoms: _153  and  _154
REMARK   63  A    between atoms: _160  and  _162
REMARK   64  A    between atoms: _162  and  _163
REMARK   65  A    between atoms: _162  and  _165
REMARK   66  A    between atoms: _165  and  _166
REMARK   67  A    between atoms: _166  and  _167
REMARK   68  A    between atoms: _169  and  _171
REMARK   69  A    between atoms: _171  and  _172
REMARK   70  A    between atoms: _171  and  _174
REMARK   71  A    between atoms: _174  and  _175
REMARK   72  A    between atoms: _178  and  _180
REMARK   73  A    between atoms: _180  and  _181
REMARK   74  A    between atoms: _180  and  _183
REMARK   75  A    between atoms: _183  and  _184
REMARK   76  A    between atoms: _189  and  _191
REMARK   77  A    between atoms: _191  and  _192
REMARK   78  A    between atoms: _191  and  _194
REMARK   79  A    between atoms: _194  and  _195
REMARK   80  A    between atoms: _198  and  _200
REMARK   81  A    between atoms: _200  and  _201
REMARK   82  A    between atoms: _200  and  _203
REMARK   83  A    between atoms: _203  and  _204
REMARK   84  A    between atoms: _207  and  _209
REMARK   85  A    between atoms: _209  and  _210
REMARK   86  A    between atoms: _209  and  _212
REMARK   87  A    between atoms: _212  and  _213
REMARK   88  A    between atoms: _213  and  _214
REMARK   89  A    between atoms: _214  and  _215
REMARK   90  A    between atoms: _215  and  _216
REMARK   91  A    between atoms: _220  and  _222
REMARK   92  A    between atoms: _222  and  _223
REMARK   93  A    between atoms: _222  and  _225
REMARK   94  A    between atoms: _225  and  _226
REMARK   95  A    between atoms: _229  and  _231
REMARK   96  A    between atoms: _231  and  _232
REMARK   97  A    between atoms: _234  and  _236
REMARK   98  A    between atoms: _236  and  _237
REMARK   99  A    between atoms: _236  and  _239
REMARK  100  A    between atoms: _239  and  _240
REMARK  101  A    between atoms: _240  and  _241
REMARK  102  A    between atoms: _241  and  _242
REMARK  103  A    between atoms: _251  and  _253
REMARK  104  A    between atoms: _253  and  _254
REMARK  105  A    between atoms: _253  and  _256
REMARK  106  A    between atoms: _256  and  _257
REMARK  107  A    between atoms: _257  and  _258
REMARK  108  A    between atoms: _258  and  _259
REMARK  109  A    between atoms: _268  and  _270
REMARK  110  A    between atoms: _270  and  _271
REMARK  111  A    between atoms: _270  and  _273
REMARK  112  A    between atoms: _276  and  _278
REMARK  113  A    between atoms: _278  and  _279
REMARK  114  A    between atoms: _278  and  _281
REMARK  115  A    between atoms: _284  and  _286
REMARK  116  A    between atoms: _286  and  _287
REMARK  117  A    between atoms: _286  and  _289
REMARK  118  A    between atoms: _289  and  _290
REMARK                            x       y       z     vdW  Elec       q    Type
REMARK                         _______ _______ _______ _____ _____    ______ ____
ROOT
ATOM      1  O   HOH     1      16.211  -1.593  29.083  0.00  0.00    +0.000 OA
ENDROOT
TORSDOF 0
REMARK  Name = ../refined-set-2016/4ijh/4ijh_pocket.pdb
REMARK  118 active torsions:
REMARK  status: ('A' for Active; 'I' for Inactive)
REMARK    1  A    between atoms: _1  and  _3
REMARK    2  A    between atoms: _3  and  _4
REMARK    3  A    between atoms: _3  and  _6
REMARK    4  A    between atoms: _6  and  _7
REMARK    5  A    between atoms: _7  and  _8
REMARK    6  A    between atoms: _8  and  _9
REMARK    7  A    between atoms: _19  and  _20
REMARK    8  A    between atoms: _25  and  _27
REMARK    9  A    between atoms: _27  and  _28
REMARK   10  A    between atoms: _27  and  _30
REMARK   11  A    between atoms: _30  and  _31
REMARK   12  A    between atoms: _34  and  _36
REMARK   13  A    between atoms: _36  and  _37
REMARK   14  A    between atoms: _36  and  _39
REMARK   15  A    between atoms: _39  and  _40
REMARK   16  A    between atoms: _43  and  _45
REMARK   17  A    between atoms: _45  and  _46
REMARK   18  A    between atoms: _45  and  _48
REMARK   19  A    between atoms: _48  and  _49
REMARK   20  A    between atoms: _52  and  _54
REMARK   21  A    between atoms: _54  and  _55
REMARK   22  A    between atoms: _57  and  _59
REMARK   23  A    between atoms: _59  and  _60
REMARK   24  A    between atoms: _59  and  _62
REMARK   25  A    between atoms: _62  and  _63
REMARK   26  A    between atoms: _63  and  _64
REMARK   27  A    between atoms: _64  and  _65
REMARK   28  A    between atoms: _74  and  _76
REMARK   29  A    between atoms: _76  and  _77
REMARK   30  A    between atoms: _76  and  _79
REMARK   31  A    between atoms: _79  and  _80
REMARK   32  A    between atoms: _85  and  _86
REMARK   33  A    between atoms: _88  and  _90
REMARK   34  A    between atoms: _90  and  _91
REMARK   35  A    between atoms: _90  and  _93
REMARK   36  A    between atoms: _93  and  _94
REMARK   37  A    between atoms: _94  and  _95
REMARK   38  A    between atoms: _95  and  _96
REMARK   39  A    between atoms: _105  and  _107
REMARK   40  A    between atoms: _107  and  _108
REMARK   41  A    between atoms: _107  and  _110
REMARK   42  A    between atoms: _110  and  _111
REMARK   43  A    between atoms: _114  and  _116
REMARK   44  A    between atoms: _116  and  _117
REMARK   45  A    between atoms: _116  and  _119
REMARK   46  A    between atoms: _119  and  _120
REMARK   47  A    between atoms: _123  and  _125
REMARK   48  A    between atoms: _125  and  _126
REMARK   49  A    between atoms: _125  and  _128
REMARK   50  A    between atoms: _128  and  _129
REMARK   51  A    between atoms: _132  and  _134
REMARK   52  A    between atoms: _134  and  _135
REMARK   53  A    between atoms: _134  and  _137
REMARK   54  A    between atoms: _137  and  _138
REMARK   55  A    between atoms: _140  and  _142
REMARK   56  A    between atoms: _142  and  _143
REMARK   57  A    between atoms: _142  and  _145
REMARK   58  A    between atoms: _145  and  _146
REMARK   59  A    between atoms: _148  and  _150
REMARK   60  A    between atoms: _150  and  _151
REMARK   61  A    between atoms: _150  and  _153
REMARK   62  A    between atoms: _153  and  _154
REMARK   63  A    between atoms: _160  and  _162
REMARK   64  A    between atoms: _162  and  _163
REMARK   65  A    between atoms: _162  and  _165
REMARK   66  A    between atoms: _165  and  _166
REMARK   67  A    between atoms: _166  and  _167
REMARK   68  A    between atoms: _169  and  _171
REMARK   69  A    between atoms: _171  and  _172
REMARK   70  A    between atoms: _171  and  _174
REMARK   71  A    between atoms: _174  and  _175
REMARK   72  A    between atoms: _178  and  _180
REMARK   73  A    between atoms: _180  and  _181
REMARK   74  A    between atoms: _180  and  _183
REMARK   75  A    between atoms: _183  and  _184
REMARK   76  A    between atoms: _189  and  _191
REMARK   77  A    between atoms: _191  and  _192
REMARK   78  A    between atoms: _191  and  _194
REMARK   79  A    between atoms: _194  and  _195
REMARK   80  A    between atoms: _198  and  _200
REMARK   81  A    between atoms: _200  and  _201
REMARK   82  A    between atoms: _200  and  _203
REMARK   83  A    between atoms: _203  and  _204
REMARK   84  A    between atoms: _207  and  _209
REMARK   85  A    between atoms: _209  and  _210
REMARK   86  A    between atoms: _209  and  _212
REMARK   87  A    between atoms: _212  and  _213
REMARK   88  A    between atoms: _213  and  _214
REMARK   89  A    between atoms: _214  and  _215
REMARK   90  A    between atoms: _215  and  _216
REMARK   91  A    between atoms: _220  and  _222
REMARK   92  A    between atoms: _222  and  _223
REMARK   93  A    between atoms: _222  and  _225
REMARK   94  A    between atoms: _225  and  _226
REMARK   95  A    between atoms: _229  and  _231
REMARK   96  A    between atoms: _231  and  _232
REMARK   97  A    between atoms: _234  and  _236
REMARK   98  A    between atoms: _236  and  _237
REMARK   99  A    between atoms: _236  and  _239
REMARK  100  A    between atoms: _239  and  _240
REMARK  101  A    between atoms: _240  and  _241
REMARK  102  A    between atoms: _241  and  _242
REMARK  103  A    between atoms: _251  and  _253
REMARK  104  A    between atoms: _253  and  _254
REMARK  105  A    between atoms: _253  and  _256
REMARK  106  A    between atoms: _256  and  _257
REMARK  107  A    between atoms: _257  and  _258
REMARK  108  A    between atoms: _258  and  _259
REMARK  109  A    between atoms: _268  and  _270
REMARK  110  A    between atoms: _270  and  _271
REMARK  111  A    between atoms: _270  and  _273
REMARK  112  A    between atoms: _276  and  _278
REMARK  113  A    between atoms: _278  and  _279
REMARK  114  A    between atoms: _278  and  _281
REMARK  115  A    between atoms: _284  and  _286
REMARK  116  A    between atoms: _286  and  _287
REMARK  117  A    between atoms: _286  and  _289
REMARK  118  A    between atoms: _289  and  _290
REMARK                            x       y       z     vdW  Elec       q    Type
REMARK                         _______ _______ _______ _____ _____    ______ ____
ROOT
ATOM      1  O   HOH     1      17.645  -9.145  35.198  0.00  0.00    +0.000 OA
ENDROOT
TORSDOF 0
REMARK  Name = ../refined-set-2016/4ijh/4ijh_pocket.pdb
REMARK  118 active torsions:
REMARK  status: ('A' for Active; 'I' for Inactive)
REMARK    1  A    between atoms: _1  and  _3
REMARK    2  A    between atoms: _3  and  _4
REMARK    3  A    between atoms: _3  and  _6
REMARK    4  A    between atoms: _6  and  _7
REMARK    5  A    between atoms: _7  and  _8
REMARK    6  A    between atoms: _8  and  _9
REMARK    7  A    between atoms: _19  and  _20
REMARK    8  A    between atoms: _25  and  _27
REMARK    9  A    between atoms: _27  and  _28
REMARK   10  A    between atoms: _27  and  _30
REMARK   11  A    between atoms: _30  and  _31
REMARK   12  A    between atoms: _34  and  _36
REMARK   13  A    between atoms: _36  and  _37
REMARK   14  A    between atoms: _36  and  _39
REMARK   15  A    between atoms: _39  and  _40
REMARK   16  A    between atoms: _43  and  _45
REMARK   17  A    between atoms: _45  and  _46
REMARK   18  A    between atoms: _45  and  _48
REMARK   19  A    between atoms: _48  and  _49
REMARK   20  A    between atoms: _52  and  _54
REMARK   21  A    between atoms: _54  and  _55
REMARK   22  A    between atoms: _57  and  _59
REMARK   23  A    between atoms: _59  and  _60
REMARK   24  A    between atoms: _59  and  _62
REMARK   25  A    between atoms: _62  and  _63
REMARK   26  A    between atoms: _63  and  _64
REMARK   27  A    between atoms: _64  and  _65
REMARK   28  A    between atoms: _74  and  _76
REMARK   29  A    between atoms: _76  and  _77
REMARK   30  A    between atoms: _76  and  _79
REMARK   31  A    between atoms: _79  and  _80
REMARK   32  A    between atoms: _85  and  _86
REMARK   33  A    between atoms: _88  and  _90
REMARK   34  A    between atoms: _90  and  _91
REMARK   35  A    between atoms: _90  and  _93
REMARK   36  A    between atoms: _93  and  _94
REMARK   37  A    between atoms: _94  and  _95
REMARK   38  A    between atoms: _95  and  _96
REMARK   39  A    between atoms: _105  and  _107
REMARK   40  A    between atoms: _107  and  _108
REMARK   41  A    between atoms: _107  and  _110
REMARK   42  A    between atoms: _110  and  _111
REMARK   43  A    between atoms: _114  and  _116
REMARK   44  A    between atoms: _116  and  _117
REMARK   45  A    between atoms: _116  and  _119
REMARK   46  A    between atoms: _119  and  _120
REMARK   47  A    between atoms: _123  and  _125
REMARK   48  A    between atoms: _125  and  _126
REMARK   49  A    between atoms: _125  and  _128
REMARK   50  A    between atoms: _128  and  _129
REMARK   51  A    between atoms: _132  and  _134
REMARK   52  A    between atoms: _134  and  _135
REMARK   53  A    between atoms: _134  and  _137
REMARK   54  A    between atoms: _137  and  _138
REMARK   55  A    between atoms: _140  and  _142
REMARK   56  A    between atoms: _142  and  _143
REMARK   57  A    between atoms: _142  and  _145
REMARK   58  A    between atoms: _145  and  _146
REMARK   59  A    between atoms: _148  and  _150
REMARK   60  A    between atoms: _150  and  _151
REMARK   61  A    between atoms: _150  and  _153
REMARK   62  A    between atoms: _153  and  _154
REMARK   63  A    between atoms: _160  and  _162
REMARK   64  A    between atoms: _162  and  _163
REMARK   65  A    between atoms: _162  and  _165
REMARK   66  A    between atoms: _165  and  _166
REMARK   67  A    between atoms: _166  and  _167
REMARK   68  A    between atoms: _169  and  _171
REMARK   69  A    between atoms: _171  and  _172
REMARK   70  A    between atoms: _171  and  _174
REMARK   71  A    between atoms: _174  and  _175
REMARK   72  A    between atoms: _178  and  _180
REMARK   73  A    between atoms: _180  and  _181
REMARK   74  A    between atoms: _180  and  _183
REMARK   75  A    between atoms: _183  and  _184
REMARK   76  A    between atoms: _189  and  _191
REMARK   77  A    between atoms: _191  and  _192
REMARK   78  A    between atoms: _191  and  _194
REMARK   79  A    between atoms: _194  and  _195
REMARK   80  A    between atoms: _198  and  _200
REMARK   81  A    between atoms: _200  and  _201
REMARK   82  A    between atoms: _200  and  _203
REMARK   83  A    between atoms: _203  and  _204
REMARK   84  A    between atoms: _207  and  _209
REMARK   85  A    between atoms: _209  and  _210
REMARK   86  A    between atoms: _209  and  _212
REMARK   87  A    between atoms: _212  and  _213
REMARK   88  A    between atoms: _213  and  _214
REMARK   89  A    between atoms: _214  and  _215
REMARK   90  A    between atoms: _215  and  _216
REMARK   91  A    between atoms: _220  and  _222
REMARK   92  A    between atoms: _222  and  _223
REMARK   93  A    between atoms: _222  and  _225
REMARK   94  A    between atoms: _225  and  _226
REMARK   95  A    between atoms: _229  and  _231
REMARK   96  A    between atoms: _231  and  _232
REMARK   97  A    between atoms: _234  and  _236
REMARK   98  A    between atoms: _236  and  _237
REMARK   99  A    between atoms: _236  and  _239
REMARK  100  A    between atoms: _239  and  _240
REMARK  101  A    between atoms: _240  and  _241
REMARK  102  A    between atoms: _241  and  _242
REMARK  103  A    between atoms: _251  and  _253
REMARK  104  A    between atoms: _253  and  _254
REMARK  105  A    between atoms: _253  and  _256
REMARK  106  A    between atoms: _256  and  _257
REMARK  107  A    between atoms: _257  and  _258
REMARK  108  A    between atoms: _258  and  _259
REMARK  109  A    between atoms: _268  and  _270
REMARK  110  A    between atoms: _270  and  _271
REMARK  111  A    between atoms: _270  and  _273
REMARK  112  A    between atoms: _276  and  _278
REMARK  113  A    between atoms: _278  and  _279
REMARK  114  A    between atoms: _278  and  _281
REMARK  115  A    between atoms: _284  and  _286
REMARK  116  A    between atoms: _286  and  _287
REMARK  117  A    between atoms: _286  and  _289
REMARK  118  A    between atoms: _289  and  _290
REMARK                            x       y       z     vdW  Elec       q    Type
REMARK                         _______ _______ _______ _____ _____    ______ ____
ROOT
ATOM      1  O   HOH     1      19.516 -18.545  24.099  0.00  0.00    +0.000 OA
ENDROOT
TORSDOF 0
REMARK  Name = ../refined-set-2016/4ijh/4ijh_pocket.pdb
REMARK  118 active torsions:
REMARK  status: ('A' for Active; 'I' for Inactive)
REMARK    1  A    between atoms: _1  and  _3
REMARK    2  A    between atoms: _3  and  _4
REMARK    3  A    between atoms: _3  and  _6
REMARK    4  A    between atoms: _6  and  _7
REMARK    5  A    between atoms: _7  and  _8
REMARK    6  A    between atoms: _8  and  _9
REMARK    7  A    between atoms: _19  and  _20
REMARK    8  A    between atoms: _25  and  _27
REMARK    9  A    between atoms: _27  and  _28
REMARK   10  A    between atoms: _27  and  _30
REMARK   11  A    between atoms: _30  and  _31
REMARK   12  A    between atoms: _34  and  _36
REMARK   13  A    between atoms: _36  and  _37
REMARK   14  A    between atoms: _36  and  _39
REMARK   15  A    between atoms: _39  and  _40
REMARK   16  A    between atoms: _43  and  _45
REMARK   17  A    between atoms: _45  and  _46
REMARK   18  A    between atoms: _45  and  _48
REMARK   19  A    between atoms: _48  and  _49
REMARK   20  A    between atoms: _52  and  _54
REMARK   21  A    between atoms: _54  and  _55
REMARK   22  A    between atoms: _57  and  _59
REMARK   23  A    between atoms: _59  and  _60
REMARK   24  A    between atoms: _59  and  _62
REMARK   25  A    between atoms: _62  and  _63
REMARK   26  A    between atoms: _63  and  _64
REMARK   27  A    between atoms: _64  and  _65
REMARK   28  A    between atoms: _74  and  _76
REMARK   29  A    between atoms: _76  and  _77
REMARK   30  A    between atoms: _76  and  _79
REMARK   31  A    between atoms: _79  and  _80
REMARK   32  A    between atoms: _85  and  _86
REMARK   33  A    between atoms: _88  and  _90
REMARK   34  A    between atoms: _90  and  _91
REMARK   35  A    between atoms: _90  and  _93
REMARK   36  A    between atoms: _93  and  _94
REMARK   37  A    between atoms: _94  and  _95
REMARK   38  A    between atoms: _95  and  _96
REMARK   39  A    between atoms: _105  and  _107
REMARK   40  A    between atoms: _107  and  _108
REMARK   41  A    between atoms: _107  and  _110
REMARK   42  A    between atoms: _110  and  _111
REMARK   43  A    between atoms: _114  and  _116
REMARK   44  A    between atoms: _116  and  _117
REMARK   45  A    between atoms: _116  and  _119
REMARK   46  A    between atoms: _119  and  _120
REMARK   47  A    between atoms: _123  and  _125
REMARK   48  A    between atoms: _125  and  _126
REMARK   49  A    between atoms: _125  and  _128
REMARK   50  A    between atoms: _128  and  _129
REMARK   51  A    between atoms: _132  and  _134
REMARK   52  A    between atoms: _134  and  _135
REMARK   53  A    between atoms: _134  and  _137
REMARK   54  A    between atoms: _137  and  _138
REMARK   55  A    between atoms: _140  and  _142
REMARK   56  A    between atoms: _142  and  _143
REMARK   57  A    between atoms: _142  and  _145
REMARK   58  A    between atoms: _145  and  _146
REMARK   59  A    between atoms: _148  and  _150
REMARK   60  A    between atoms: _150  and  _151
REMARK   61  A    between atoms: _150  and  _153
REMARK   62  A    between atoms: _153  and  _154
REMARK   63  A    between atoms: _160  and  _162
REMARK   64  A    between atoms: _162  and  _163
REMARK   65  A    between atoms: _162  and  _165
REMARK   66  A    between atoms: _165  and  _166
REMARK   67  A    between atoms: _166  and  _167
REMARK   68  A    between atoms: _169  and  _171
REMARK   69  A    between atoms: _171  and  _172
REMARK   70  A    between atoms: _171  and  _174
REMARK   71  A    between atoms: _174  and  _175
REMARK   72  A    between atoms: _178  and  _180
REMARK   73  A    between atoms: _180  and  _181
REMARK   74  A    between atoms: _180  and  _183
REMARK   75  A    between atoms: _183  and  _184
REMARK   76  A    between atoms: _189  and  _191
REMARK   77  A    between atoms: _191  and  _192
REMARK   78  A    between atoms: _191  and  _194
REMARK   79  A    between atoms: _194  and  _195
REMARK   80  A    between atoms: _198  and  _200
REMARK   81  A    between atoms: _200  and  _201
REMARK   82  A    between atoms: _200  and  _203
REMARK   83  A    between atoms: _203  and  _204
REMARK   84  A    between atoms: _207  and  _209
REMARK   85  A    between atoms: _209  and  _210
REMARK   86  A    between atoms: _209  and  _212
REMARK   87  A    between atoms: _212  and  _213
REMARK   88  A    between atoms: _213  and  _214
REMARK   89  A    between atoms: _214  and  _215
REMARK   90  A    between atoms: _215  and  _216
REMARK   91  A    between atoms: _220  and  _222
REMARK   92  A    between atoms: _222  and  _223
REMARK   93  A    between atoms: _222  and  _225
REMARK   94  A    between atoms: _225  and  _226
REMARK   95  A    between atoms: _229  and  _231
REMARK   96  A    between atoms: _231  and  _232
REMARK   97  A    between atoms: _234  and  _236
REMARK   98  A    between atoms: _236  and  _237
REMARK   99  A    between atoms: _236  and  _239
REMARK  100  A    between atoms: _239  and  _240
REMARK  101  A    between atoms: _240  and  _241
REMARK  102  A    between atoms: _241  and  _242
REMARK  103  A    between atoms: _251  and  _253
REMARK  104  A    between atoms: _253  and  _254
REMARK  105  A    between atoms: _253  and  _256
REMARK  106  A    between atoms: _256  and  _257
REMARK  107  A    between atoms: _257  and  _258
REMARK  108  A    between atoms: _258  and  _259
REMARK  109  A    between atoms: _268  and  _270
REMARK  110  A    between atoms: _270  and  _271
REMARK  111  A    between atoms: _270  and  _273
REMARK  112  A    between atoms: _276  and  _278
REMARK  113  A    between atoms: _278  and  _279
REMARK  114  A    between atoms: _278  and  _281
REMARK  115  A    between atoms: _284  and  _286
REMARK  116  A    between atoms: _286  and  _287
REMARK  117  A    between atoms: _286  and  _289
REMARK  118  A    between atoms: _289  and  _290
REMARK                            x       y       z     vdW  Elec       q    Type
REMARK                         _______ _______ _______ _____ _____    ______ ____
ROOT
ATOM      1  O   HOH     1      11.189 -18.821  28.769  0.00  0.00    +0.000 OA
ENDROOT
TORSDOF 0
REMARK  Name = ../refined-set-2016/4ijh/4ijh_pocket.pdb
REMARK  118 active torsions:
REMARK  status: ('A' for Active; 'I' for Inactive)
REMARK    1  A    between atoms: _1  and  _3
REMARK    2  A    between atoms: _3  and  _4
REMARK    3  A    between atoms: _3  and  _6
REMARK    4  A    between atoms: _6  and  _7
REMARK    5  A    between atoms: _7  and  _8
REMARK    6  A    between atoms: _8  and  _9
REMARK    7  A    between atoms: _19  and  _20
REMARK    8  A    between atoms: _25  and  _27
REMARK    9  A    between atoms: _27  and  _28
REMARK   10  A    between atoms: _27  and  _30
REMARK   11  A    between atoms: _30  and  _31
REMARK   12  A    between atoms: _34  and  _36
REMARK   13  A    between atoms: _36  and  _37
REMARK   14  A    between atoms: _36  and  _39
REMARK   15  A    between atoms: _39  and  _40
REMARK   16  A    between atoms: _43  and  _45
REMARK   17  A    between atoms: _45  and  _46
REMARK   18  A    between atoms: _45  and  _48
REMARK   19  A    between atoms: _48  and  _49
REMARK   20  A    between atoms: _52  and  _54
REMARK   21  A    between atoms: _54  and  _55
REMARK   22  A    between atoms: _57  and  _59
REMARK   23  A    between atoms: _59  and  _60
REMARK   24  A    between atoms: _59  and  _62
REMARK   25  A    between atoms: _62  and  _63
REMARK   26  A    between atoms: _63  and  _64
REMARK   27  A    between atoms: _64  and  _65
REMARK   28  A    between atoms: _74  and  _76
REMARK   29  A    between atoms: _76  and  _77
REMARK   30  A    between atoms: _76  and  _79
REMARK   31  A    between atoms: _79  and  _80
REMARK   32  A    between atoms: _85  and  _86
REMARK   33  A    between atoms: _88  and  _90
REMARK   34  A    between atoms: _90  and  _91
REMARK   35  A    between atoms: _90  and  _93
REMARK   36  A    between atoms: _93  and  _94
REMARK   37  A    between atoms: _94  and  _95
REMARK   38  A    between atoms: _95  and  _96
REMARK   39  A    between atoms: _105  and  _107
REMARK   40  A    between atoms: _107  and  _108
REMARK   41  A    between atoms: _107  and  _110
REMARK   42  A    between atoms: _110  and  _111
REMARK   43  A    between atoms: _114  and  _116
REMARK   44  A    between atoms: _116  and  _117
REMARK   45  A    between atoms: _116  and  _119
REMARK   46  A    between atoms: _119  and  _120
REMARK   47  A    between atoms: _123  and  _125
REMARK   48  A    between atoms: _125  and  _126
REMARK   49  A    between atoms: _125  and  _128
REMARK   50  A    between atoms: _128  and  _129
REMARK   51  A    between atoms: _132  and  _134
REMARK   52  A    between atoms: _134  and  _135
REMARK   53  A    between atoms: _134  and  _137
REMARK   54  A    between atoms: _137  and  _138
REMARK   55  A    between atoms: _140  and  _142
REMARK   56  A    between atoms: _142  and  _143
REMARK   57  A    between atoms: _142  and  _145
REMARK   58  A    between atoms: _145  and  _146
REMARK   59  A    between atoms: _148  and  _150
REMARK   60  A    between atoms: _150  and  _151
REMARK   61  A    between atoms: _150  and  _153
REMARK   62  A    between atoms: _153  and  _154
REMARK   63  A    between atoms: _160  and  _162
REMARK   64  A    between atoms: _162  and  _163
REMARK   65  A    between atoms: _162  and  _165
REMARK   66  A    between atoms: _165  and  _166
REMARK   67  A    between atoms: _166  and  _167
REMARK   68  A    between atoms: _169  and  _171
REMARK   69  A    between atoms: _171  and  _172
REMARK   70  A    between atoms: _171  and  _174
REMARK   71  A    between atoms: _174  and  _175
REMARK   72  A    between atoms: _178  and  _180
REMARK   73  A    between atoms: _180  and  _181
REMARK   74  A    between atoms: _180  and  _183
REMARK   75  A    between atoms: _183  and  _184
REMARK   76  A    between atoms: _189  and  _191
REMARK   77  A    between atoms: _191  and  _192
REMARK   78  A    between atoms: _191  and  _194
REMARK   79  A    between atoms: _194  and  _195
REMARK   80  A    between atoms: _198  and  _200
REMARK   81  A    between atoms: _200  and  _201
REMARK   82  A    between atoms: _200  and  _203
REMARK   83  A    between atoms: _203  and  _204
REMARK   84  A    between atoms: _207  and  _209
REMARK   85  A    between atoms: _209  and  _210
REMARK   86  A    between atoms: _209  and  _212
REMARK   87  A    between atoms: _212  and  _213
REMARK   88  A    between atoms: _213  and  _214
REMARK   89  A    between atoms: _214  and  _215
REMARK   90  A    between atoms: _215  and  _216
REMARK   91  A    between atoms: _220  and  _222
REMARK   92  A    between atoms: _222  and  _223
REMARK   93  A    between atoms: _222  and  _225
REMARK   94  A    between atoms: _225  and  _226
REMARK   95  A    between atoms: _229  and  _231
REMARK   96  A    between atoms: _231  and  _232
REMARK   97  A    between atoms: _234  and  _236
REMARK   98  A    between atoms: _236  and  _237
REMARK   99  A    between atoms: _236  and  _239
REMARK  100  A    between atoms: _239  and  _240
REMARK  101  A    between atoms: _240  and  _241
REMARK  102  A    between atoms: _241  and  _242
REMARK  103  A    between atoms: _251  and  _253
REMARK  104  A    between atoms: _253  and  _254
REMARK  105  A    between atoms: _253  and  _256
REMARK  106  A    between atoms: _256  and  _257
REMARK  107  A    between atoms: _257  and  _258
REMARK  108  A    between atoms: _258  and  _259
REMARK  109  A    between atoms: _268  and  _270
REMARK  110  A    between atoms: _270  and  _271
REMARK  111  A    between atoms: _270  and  _273
REMARK  112  A    between atoms: _276  and  _278
REMARK  113  A    between atoms: _278  and  _279
REMARK  114  A    between atoms: _278  and  _281
REMARK  115  A    between atoms: _284  and  _286
REMARK  116  A    between atoms: _286  and  _287
REMARK  117  A    between atoms: _286  and  _289
REMARK  118  A    between atoms: _289  and  _290
REMARK                            x       y       z     vdW  Elec       q    Type
REMARK                         _______ _______ _______ _____ _____    ______ ____
ROOT
ATOM      1  O   HOH     1       8.383 -14.326  31.618  0.00  0.00    +0.000 OA
ENDROOT
TORSDOF 0
REMARK  Name = ../refined-set-2016/4ijh/4ijh_pocket.pdb
REMARK  118 active torsions:
REMARK  status: ('A' for Active; 'I' for Inactive)
REMARK    1  A    between atoms: _1  and  _3
REMARK    2  A    between atoms: _3  and  _4
REMARK    3  A    between atoms: _3  and  _6
REMARK    4  A    between atoms: _6  and  _7
REMARK    5  A    between atoms: _7  and  _8
REMARK    6  A    between atoms: _8  and  _9
REMARK    7  A    between atoms: _19  and  _20
REMARK    8  A    between atoms: _25  and  _27
REMARK    9  A    between atoms: _27  and  _28
REMARK   10  A    between atoms: _27  and  _30
REMARK   11  A    between atoms: _30  and  _31
REMARK   12  A    between atoms: _34  and  _36
REMARK   13  A    between atoms: _36  and  _37
REMARK   14  A    between atoms: _36  and  _39
REMARK   15  A    between atoms: _39  and  _40
REMARK   16  A    between atoms: _43  and  _45
REMARK   17  A    between atoms: _45  and  _46
REMARK   18  A    between atoms: _45  and  _48
REMARK   19  A    between atoms: _48  and  _49
REMARK   20  A    between atoms: _52  and  _54
REMARK   21  A    between atoms: _54  and  _55
REMARK   22  A    between atoms: _57  and  _59
REMARK   23  A    between atoms: _59  and  _60
REMARK   24  A    between atoms: _59  and  _62
REMARK   25  A    between atoms: _62  and  _63
REMARK   26  A    between atoms: _63  and  _64
REMARK   27  A    between atoms: _64  and  _65
REMARK   28  A    between atoms: _74  and  _76
REMARK   29  A    between atoms: _76  and  _77
REMARK   30  A    between atoms: _76  and  _79
REMARK   31  A    between atoms: _79  and  _80
REMARK   32  A    between atoms: _85  and  _86
REMARK   33  A    between atoms: _88  and  _90
REMARK   34  A    between atoms: _90  and  _91
REMARK   35  A    between atoms: _90  and  _93
REMARK   36  A    between atoms: _93  and  _94
REMARK   37  A    between atoms: _94  and  _95
REMARK   38  A    between atoms: _95  and  _96
REMARK   39  A    between atoms: _105  and  _107
REMARK   40  A    between atoms: _107  and  _108
REMARK   41  A    between atoms: _107  and  _110
REMARK   42  A    between atoms: _110  and  _111
REMARK   43  A    between atoms: _114  and  _116
REMARK   44  A    between atoms: _116  and  _117
REMARK   45  A    between atoms: _116  and  _119
REMARK   46  A    between atoms: _119  and  _120
REMARK   47  A    between atoms: _123  and  _125
REMARK   48  A    between atoms: _125  and  _126
REMARK   49  A    between atoms: _125  and  _128
REMARK   50  A    between atoms: _128  and  _129
REMARK   51  A    between atoms: _132  and  _134
REMARK   52  A    between atoms: _134  and  _135
REMARK   53  A    between atoms: _134  and  _137
REMARK   54  A    between atoms: _137  and  _138
REMARK   55  A    between atoms: _140  and  _142
REMARK   56  A    between atoms: _142  and  _143
REMARK   57  A    between atoms: _142  and  _145
REMARK   58  A    between atoms: _145  and  _146
REMARK   59  A    between atoms: _148  and  _150
REMARK   60  A    between atoms: _150  and  _151
REMARK   61  A    between atoms: _150  and  _153
REMARK   62  A    between atoms: _153  and  _154
REMARK   63  A    between atoms: _160  and  _162
REMARK   64  A    between atoms: _162  and  _163
REMARK   65  A    between atoms: _162  and  _165
REMARK   66  A    between atoms: _165  and  _166
REMARK   67  A    between atoms: _166  and  _167
REMARK   68  A    between atoms: _169  and  _171
REMARK   69  A    between atoms: _171  and  _172
REMARK   70  A    between atoms: _171  and  _174
REMARK   71  A    between atoms: _174  and  _175
REMARK   72  A    between atoms: _178  and  _180
REMARK   73  A    between atoms: _180  and  _181
REMARK   74  A    between atoms: _180  and  _183
REMARK   75  A    between atoms: _183  and  _184
REMARK   76  A    between atoms: _189  and  _191
REMARK   77  A    between atoms: _191  and  _192
REMARK   78  A    between atoms: _191  and  _194
REMARK   79  A    between atoms: _194  and  _195
REMARK   80  A    between atoms: _198  and  _200
REMARK   81  A    between atoms: _200  and  _201
REMARK   82  A    between atoms: _200  and  _203
REMARK   83  A    between atoms: _203  and  _204
REMARK   84  A    between atoms: _207  and  _209
REMARK   85  A    between atoms: _209  and  _210
REMARK   86  A    between atoms: _209  and  _212
REMARK   87  A    between atoms: _212  and  _213
REMARK   88  A    between atoms: _213  and  _214
REMARK   89  A    between atoms: _214  and  _215
REMARK   90  A    between atoms: _215  and  _216
REMARK   91  A    between atoms: _220  and  _222
REMARK   92  A    between atoms: _222  and  _223
REMARK   93  A    between atoms: _222  and  _225
REMARK   94  A    between atoms: _225  and  _226
REMARK   95  A    between atoms: _229  and  _231
REMARK   96  A    between atoms: _231  and  _232
REMARK   97  A    between atoms: _234  and  _236
REMARK   98  A    between atoms: _236  and  _237
REMARK   99  A    between atoms: _236  and  _239
REMARK  100  A    between atoms: _239  and  _240
REMARK  101  A    between atoms: _240  and  _241
REMARK  102  A    between atoms: _241  and  _242
REMARK  103  A    between atoms: _251  and  _253
REMARK  104  A    between atoms: _253  and  _254
REMARK  105  A    between atoms: _253  and  _256
REMARK  106  A    between atoms: _256  and  _257
REMARK  107  A    between atoms: _257  and  _258
REMARK  108  A    between atoms: _258  and  _259
REMARK  109  A    between atoms: _268  and  _270
REMARK  110  A    between atoms: _270  and  _271
REMARK  111  A    between atoms: _270  and  _273
REMARK  112  A    between atoms: _276  and  _278
REMARK  113  A    between atoms: _278  and  _279
REMARK  114  A    between atoms: _278  and  _281
REMARK  115  A    between atoms: _284  and  _286
REMARK  116  A    between atoms: _286  and  _287
REMARK  117  A    between atoms: _286  and  _289
REMARK  118  A    between atoms: _289  and  _290
REMARK                            x       y       z     vdW  Elec       q    Type
REMARK                         _______ _______ _______ _____ _____    ______ ____
ROOT
ATOM      1  O   HOH     1       9.174 -16.240  30.658  0.00  0.00    +0.000 OA
ENDROOT
TORSDOF 0
REMARK  Name = ../refined-set-2016/4ijh/4ijh_pocket.pdb
REMARK  118 active torsions:
REMARK  status: ('A' for Active; 'I' for Inactive)
REMARK    1  A    between atoms: _1  and  _3
REMARK    2  A    between atoms: _3  and  _4
REMARK    3  A    between atoms: _3  and  _6
REMARK    4  A    between atoms: _6  and  _7
REMARK    5  A    between atoms: _7  and  _8
REMARK    6  A    between atoms: _8  and  _9
REMARK    7  A    between atoms: _19  and  _20
REMARK    8  A    between atoms: _25  and  _27
REMARK    9  A    between atoms: _27  and  _28
REMARK   10  A    between atoms: _27  and  _30
REMARK   11  A    between atoms: _30  and  _31
REMARK   12  A    between atoms: _34  and  _36
REMARK   13  A    between atoms: _36  and  _37
REMARK   14  A    between atoms: _36  and  _39
REMARK   15  A    between atoms: _39  and  _40
REMARK   16  A    between atoms: _43  and  _45
REMARK   17  A    between atoms: _45  and  _46
REMARK   18  A    between atoms: _45  and  _48
REMARK   19  A    between atoms: _48  and  _49
REMARK   20  A    between atoms: _52  and  _54
REMARK   21  A    between atoms: _54  and  _55
REMARK   22  A    between atoms: _57  and  _59
REMARK   23  A    between atoms: _59  and  _60
REMARK   24  A    between atoms: _59  and  _62
REMARK   25  A    between atoms: _62  and  _63
REMARK   26  A    between atoms: _63  and  _64
REMARK   27  A    between atoms: _64  and  _65
REMARK   28  A    between atoms: _74  and  _76
REMARK   29  A    between atoms: _76  and  _77
REMARK   30  A    between atoms: _76  and  _79
REMARK   31  A    between atoms: _79  and  _80
REMARK   32  A    between atoms: _85  and  _86
REMARK   33  A    between atoms: _88  and  _90
REMARK   34  A    between atoms: _90  and  _91
REMARK   35  A    between atoms: _90  and  _93
REMARK   36  A    between atoms: _93  and  _94
REMARK   37  A    between atoms: _94  and  _95
REMARK   38  A    between atoms: _95  and  _96
REMARK   39  A    between atoms: _105  and  _107
REMARK   40  A    between atoms: _107  and  _108
REMARK   41  A    between atoms: _107  and  _110
REMARK   42  A    between atoms: _110  and  _111
REMARK   43  A    between atoms: _114  and  _116
REMARK   44  A    between atoms: _116  and  _117
REMARK   45  A    between atoms: _116  and  _119
REMARK   46  A    between atoms: _119  and  _120
REMARK   47  A    between atoms: _123  and  _125
REMARK   48  A    between atoms: _125  and  _126
REMARK   49  A    between atoms: _125  and  _128
REMARK   50  A    between atoms: _128  and  _129
REMARK   51  A    between atoms: _132  and  _134
REMARK   52  A    between atoms: _134  and  _135
REMARK   53  A    between atoms: _134  and  _137
REMARK   54  A    between atoms: _137  and  _138
REMARK   55  A    between atoms: _140  and  _142
REMARK   56  A    between atoms: _142  and  _143
REMARK   57  A    between atoms: _142  and  _145
REMARK   58  A    between atoms: _145  and  _146
REMARK   59  A    between atoms: _148  and  _150
REMARK   60  A    between atoms: _150  and  _151
REMARK   61  A    between atoms: _150  and  _153
REMARK   62  A    between atoms: _153  and  _154
REMARK   63  A    between atoms: _160  and  _162
REMARK   64  A    between atoms: _162  and  _163
REMARK   65  A    between atoms: _162  and  _165
REMARK   66  A    between atoms: _165  and  _166
REMARK   67  A    between atoms: _166  and  _167
REMARK   68  A    between atoms: _169  and  _171
REMARK   69  A    between atoms: _171  and  _172
REMARK   70  A    between atoms: _171  and  _174
REMARK   71  A    between atoms: _174  and  _175
REMARK   72  A    between atoms: _178  and  _180
REMARK   73  A    between atoms: _180  and  _181
REMARK   74  A    between atoms: _180  and  _183
REMARK   75  A    between atoms: _183  and  _184
REMARK   76  A    between atoms: _189  and  _191
REMARK   77  A    between atoms: _191  and  _192
REMARK   78  A    between atoms: _191  and  _194
REMARK   79  A    between atoms: _194  and  _195
REMARK   80  A    between atoms: _198  and  _200
REMARK   81  A    between atoms: _200  and  _201
REMARK   82  A    between atoms: _200  and  _203
REMARK   83  A    between atoms: _203  and  _204
REMARK   84  A    between atoms: _207  and  _209
REMARK   85  A    between atoms: _209  and  _210
REMARK   86  A    between atoms: _209  and  _212
REMARK   87  A    between atoms: _212  and  _213
REMARK   88  A    between atoms: _213  and  _214
REMARK   89  A    between atoms: _214  and  _215
REMARK   90  A    between atoms: _215  and  _216
REMARK   91  A    between atoms: _220  and  _222
REMARK   92  A    between atoms: _222  and  _223
REMARK   93  A    between atoms: _222  and  _225
REMARK   94  A    between atoms: _225  and  _226
REMARK   95  A    between atoms: _229  and  _231
REMARK   96  A    between atoms: _231  and  _232
REMARK   97  A    between atoms: _234  and  _236
REMARK   98  A    between atoms: _236  and  _237
REMARK   99  A    between atoms: _236  and  _239
REMARK  100  A    between atoms: _239  and  _240
REMARK  101  A    between atoms: _240  and  _241
REMARK  102  A    between atoms: _241  and  _242
REMARK  103  A    between atoms: _251  and  _253
REMARK  104  A    between atoms: _253  and  _254
REMARK  105  A    between atoms: _253  and  _256
REMARK  106  A    between atoms: _256  and  _257
REMARK  107  A    between atoms: _257  and  _258
REMARK  108  A    between atoms: _258  and  _259
REMARK  109  A    between atoms: _268  and  _270
REMARK  110  A    between atoms: _270  and  _271
REMARK  111  A    between atoms: _270  and  _273
REMARK  112  A    between atoms: _276  and  _278
REMARK  113  A    between atoms: _278  and  _279
REMARK  114  A    between atoms: _278  and  _281
REMARK  115  A    between atoms: _284  and  _286
REMARK  116  A    between atoms: _286  and  _287
REMARK  117  A    between atoms: _286  and  _289
REMARK  118  A    between atoms: _289  and  _290
REMARK                            x       y       z     vdW  Elec       q    Type
REMARK                         _______ _______ _______ _____ _____    ______ ____
ROOT
ATOM      1  O   HOH     1      19.407 -11.970  17.901  0.00  0.00    +0.000 OA
ENDROOT
TORSDOF 0
