REMARK  Name = ../refined-set-2016/3fv1/3fv1_pocket.pdb
REMARK  235 active torsions:
REMARK  status: ('A' for Active; 'I' for Inactive)
REMARK    1  A    between atoms: _1  and  _3
REMARK    2  A    between atoms: _3  and  _4
REMARK    3  A    between atoms: _3  and  _6
REMARK    4  A    between atoms: _6  and  _7
REMARK    5  A    between atoms: _10  and  _12
REMARK    6  A    between atoms: _12  and  _13
REMARK    7  A    between atoms: _12  and  _15
REMARK    8  A    between atoms: _15  and  _16
REMARK    9  A    between atoms: _19  and  _21
REMARK   10  A    between atoms: _21  and  _22
REMARK   11  A    between atoms: _21  and  _24
REMARK   12  A    between atoms: _24  and  _25
REMARK   13  A    between atoms: _25  and  _26
REMARK   14  A    between atoms: _29  and  _31
REMARK   15  A    between atoms: _31  and  _32
REMARK   16  A    between atoms: _31  and  _34
REMARK   17  A    between atoms: _34  and  _35
REMARK   18  A    between atoms: _35  and  _36
REMARK   19  A    between atoms: _40  and  _41
REMARK   20  A    between atoms: _46  and  _48
REMARK   21  A    between atoms: _48  and  _49
REMARK   22  A    between atoms: _48  and  _51
REMARK   23  A    between atoms: _51  and  _52
REMARK   24  A    between atoms: _57  and  _58
REMARK   25  A    between atoms: _60  and  _62
REMARK   26  A    between atoms: _62  and  _63
REMARK   27  A    between atoms: _62  and  _65
REMARK   28  A    between atoms: _67  and  _69
REMARK   29  A    between atoms: _69  and  _70
REMARK   30  A    between atoms: _69  and  _72
REMARK   31  A    between atoms: _72  and  _73
REMARK   32  A    between atoms: _73  and  _74
REMARK   33  A    between atoms: _74  and  _75
REMARK   34  A    between atoms: _75  and  _76
REMARK   35  A    between atoms: _80  and  _82
REMARK   36  A    between atoms: _82  and  _83
REMARK   37  A    between atoms: _82  and  _85
REMARK   38  A    between atoms: _85  and  _86
REMARK   39  A    between atoms: _91  and  _92
REMARK   40  A    between atoms: _94  and  _96
REMARK   41  A    between atoms: _96  and  _97
REMARK   42  A    between atoms: _99  and  _101
REMARK   43  A    between atoms: _101  and  _102
REMARK   44  A    between atoms: _105  and  _107
REMARK   45  A    between atoms: _107  and  _108
REMARK   46  A    between atoms: _107  and  _110
REMARK   47  A    between atoms: _110  and  _111
REMARK   48  A    between atoms: _121  and  _123
REMARK   49  A    between atoms: _123  and  _124
REMARK   50  A    between atoms: _126  and  _128
REMARK   51  A    between atoms: _128  and  _129
REMARK   52  A    between atoms: _128  and  _131
REMARK   53  A    between atoms: _131  and  _132
REMARK   54  A    between atoms: _132  and  _133
REMARK   55  A    between atoms: _135  and  _137
REMARK   56  A    between atoms: _137  and  _138
REMARK   57  A    between atoms: _137  and  _140
REMARK   58  A    between atoms: _143  and  _145
REMARK   59  A    between atoms: _145  and  _146
REMARK   60  A    between atoms: _150  and  _151
REMARK   61  A    between atoms: _156  and  _158
REMARK   62  A    between atoms: _158  and  _159
REMARK   63  A    between atoms: _158  and  _161
REMARK   64  A    between atoms: _161  and  _162
REMARK   65  A    between atoms: _165  and  _167
REMARK   66  A    between atoms: _167  and  _168
REMARK   67  A    between atoms: _167  and  _170
REMARK   68  A    between atoms: _170  and  _171
REMARK   69  A    between atoms: _174  and  _176
REMARK   70  A    between atoms: _176  and  _177
REMARK   71  A    between atoms: _176  and  _179
REMARK   72  A    between atoms: _179  and  _180
REMARK   73  A    between atoms: _183  and  _185
REMARK   74  A    between atoms: _185  and  _186
REMARK   75  A    between atoms: _185  and  _188
REMARK   76  A    between atoms: _188  and  _189
REMARK   77  A    between atoms: _192  and  _194
REMARK   78  A    between atoms: _194  and  _195
REMARK   79  A    between atoms: _194  and  _197
REMARK   80  A    between atoms: _197  and  _198
REMARK   81  A    between atoms: _198  and  _199
REMARK   82  A    between atoms: _199  and  _200
REMARK   83  A    between atoms: _209  and  _211
REMARK   84  A    between atoms: _211  and  _212
REMARK   85  A    between atoms: _211  and  _214
REMARK   86  A    between atoms: _214  and  _215
REMARK   87  A    between atoms: _221  and  _223
REMARK   88  A    between atoms: _223  and  _224
REMARK   89  A    between atoms: _223  and  _226
REMARK   90  A    between atoms: _226  and  _227
REMARK   91  A    between atoms: _230  and  _232
REMARK   92  A    between atoms: _232  and  _233
REMARK   93  A    between atoms: _235  and  _237
REMARK   94  A    between atoms: _237  and  _238
REMARK   95  A    between atoms: _237  and  _240
REMARK   96  A    between atoms: _240  and  _241
REMARK   97  A    between atoms: _244  and  _246
REMARK   98  A    between atoms: _246  and  _247
REMARK   99  A    between atoms: _246  and  _249
REMARK  100  A    between atoms: _249  and  _250
REMARK  101  A    between atoms: _252  and  _254
REMARK  102  A    between atoms: _254  and  _255
REMARK  103  A    between atoms: _254  and  _257
REMARK  104  A    between atoms: _257  and  _258
REMARK  105  A    between atoms: _261  and  _263
REMARK  106  A    between atoms: _263  and  _264
REMARK  107  A    between atoms: _267  and  _269
REMARK  108  A    between atoms: _269  and  _270
REMARK  109  A    between atoms: _269  and  _272
REMARK  110  A    between atoms: _275  and  _277
REMARK  111  A    between atoms: _277  and  _278
REMARK  112  A    between atoms: _277  and  _280
REMARK  113  A    between atoms: _280  and  _281
REMARK  114  A    between atoms: _281  and  _282
REMARK  115  A    between atoms: _282  and  _283
REMARK  116  A    between atoms: _292  and  _294
REMARK  117  A    between atoms: _294  and  _295
REMARK  118  A    between atoms: _294  and  _297
REMARK  119  A    between atoms: _297  and  _298
REMARK  120  A    between atoms: _301  and  _303
REMARK  121  A    between atoms: _303  and  _304
REMARK  122  A    between atoms: _306  and  _308
REMARK  123  A    between atoms: _308  and  _309
REMARK  124  A    between atoms: _308  and  _311
REMARK  125  A    between atoms: _311  and  _312
REMARK  126  A    between atoms: _314  and  _316
REMARK  127  A    between atoms: _316  and  _317
REMARK  128  A    between atoms: _316  and  _319
REMARK  129  A    between atoms: _319  and  _320
REMARK  130  A    between atoms: _323  and  _325
REMARK  131  A    between atoms: _325  and  _326
REMARK  132  A    between atoms: _325  and  _328
REMARK  133  A    between atoms: _328  and  _329
REMARK  134  A    between atoms: _329  and  _330
REMARK  135  A    between atoms: _332  and  _334
REMARK  136  A    between atoms: _334  and  _335
REMARK  137  A    between atoms: _334  and  _337
REMARK  138  A    between atoms: _337  and  _338
REMARK  139  A    between atoms: _341  and  _343
REMARK  140  A    between atoms: _343  and  _344
REMARK  141  A    between atoms: _343  and  _346
REMARK  142  A    between atoms: _346  and  _347
REMARK  143  A    between atoms: _353  and  _355
REMARK  144  A    between atoms: _355  and  _356
REMARK  145  A    between atoms: _355  and  _358
REMARK  146  A    between atoms: _358  and  _359
REMARK  147  A    between atoms: _365  and  _367
REMARK  148  A    between atoms: _367  and  _368
REMARK  149  A    between atoms: _367  and  _370
REMARK  150  A    between atoms: _373  and  _375
REMARK  151  A    between atoms: _375  and  _376
REMARK  152  A    between atoms: _375  and  _378
REMARK  153  A    between atoms: _378  and  _379
REMARK  154  A    between atoms: _379  and  _380
REMARK  155  A    between atoms: _380  and  _381
REMARK  156  A    between atoms: _390  and  _392
REMARK  157  A    between atoms: _392  and  _393
REMARK  158  A    between atoms: _392  and  _395
REMARK  159  A    between atoms: _395  and  _396
REMARK  160  A    between atoms: _401  and  _403
REMARK  161  A    between atoms: _403  and  _404
REMARK  162  A    between atoms: _403  and  _406
REMARK  163  A    between atoms: _406  and  _407
REMARK  164  A    between atoms: _409  and  _411
REMARK  165  A    between atoms: _411  and  _412
REMARK  166  A    between atoms: _411  and  _414
REMARK  167  A    between atoms: _414  and  _415
REMARK  168  A    between atoms: _418  and  _420
REMARK  169  A    between atoms: _420  and  _421
REMARK  170  A    between atoms: _423  and  _425
REMARK  171  A    between atoms: _425  and  _426
REMARK  172  A    between atoms: _425  and  _428
REMARK  173  A    between atoms: _428  and  _429
REMARK  174  A    between atoms: _432  and  _434
REMARK  175  A    between atoms: _434  and  _435
REMARK  176  A    between atoms: _434  and  _437
REMARK  177  A    between atoms: _437  and  _438
REMARK  178  A    between atoms: _441  and  _443
REMARK  179  A    between atoms: _443  and  _444
REMARK  180  A    between atoms: _443  and  _446
REMARK  181  A    between atoms: _446  and  _447
REMARK  182  A    between atoms: _450  and  _452
REMARK  183  A    between atoms: _452  and  _453
REMARK  184  A    between atoms: _452  and  _455
REMARK  185  A    between atoms: _455  and  _456
REMARK  186  A    between atoms: _456  and  _457
REMARK  187  A    between atoms: _459  and  _461
REMARK  188  A    between atoms: _461  and  _462
REMARK  189  A    between atoms: _461  and  _464
REMARK  190  A    between atoms: _464  and  _465
REMARK  191  A    between atoms: _465  and  _466
REMARK  192  A    between atoms: _469  and  _471
REMARK  193  A    between atoms: _471  and  _472
REMARK  194  A    between atoms: _471  and  _474
REMARK  195  A    between atoms: _474  and  _475
REMARK  196  A    between atoms: _477  and  _479
REMARK  197  A    between atoms: _479  and  _480
REMARK  198  A    between atoms: _479  and  _482
REMARK  199  A    between atoms: _482  and  _483
REMARK  200  A    between atoms: _486  and  _488
REMARK  201  A    between atoms: _488  and  _489
REMARK  202  A    between atoms: _488  and  _491
REMARK  203  A    between atoms: _491  and  _492
REMARK  204  A    between atoms: _494  and  _496
REMARK  205  A    between atoms: _496  and  _497
REMARK  206  A    between atoms: _496  and  _499
REMARK  207  A    between atoms: _499  and  _500
REMARK  208  A    between atoms: _503  and  _505
REMARK  209  A    between atoms: _505  and  _506
REMARK  210  A    between atoms: _505  and  _508
REMARK  211  A    between atoms: _508  and  _509
REMARK  212  A    between atoms: _514  and  _515
REMARK  213  A    between atoms: _517  and  _519
REMARK  214  A    between atoms: _519  and  _520
REMARK  215  A    between atoms: _519  and  _522
REMARK  216  A    between atoms: _525  and  _527
REMARK  217  A    between atoms: _527  and  _528
REMARK  218  A    between atoms: _527  and  _530
REMARK  219  A    between atoms: _530  and  _531
REMARK  220  A    between atoms: _531  and  _532
REMARK  221  A    between atoms: _532  and  _533
REMARK  222  A    between atoms: _533  and  _534
REMARK  223  A    between atoms: _538  and  _540
REMARK  224  A    between atoms: _540  and  _541
REMARK  225  A    between atoms: _543  and  _545
REMARK  226  A    between atoms: _545  and  _546
REMARK  227  A    between atoms: _545  and  _548
REMARK  228  A    between atoms: _548  and  _549
REMARK  229  A    between atoms: _554  and  _555
REMARK  230  A    between atoms: _557  and  _559
REMARK  231  A    between atoms: _559  and  _560
REMARK  232  A    between atoms: _562  and  _564
REMARK  233  A    between atoms: _564  and  _565
REMARK  234  A    between atoms: _564  and  _567
REMARK  235  A    between atoms: _567  and  _568
REMARK                            x       y       z     vdW  Elec       q    Type
REMARK                         _______ _______ _______ _____ _____    ______ ____
ROOT
ATOM      1  C   GLU A   3      -8.811   6.887  24.637  0.00  0.00    +0.241 C 
ATOM      2  N   GLU A   4     -10.044   6.852  25.147  0.00  0.00    -0.297 N 
ATOM      3  H   GLU A   4     -10.344   7.600  25.804  0.00  0.00    +0.150 HD
ATOM      4  O   GLU A   3      -8.396   6.058  23.846  0.00  0.00    -0.273 OA
ENDROOT
BRANCH   2   5
ATOM      5  CA  GLU A   4     -10.982   5.786  24.802  0.00  0.00    +0.149 C 
BRANCH   5   6
ATOM      6  C   GLU A   4     -11.486   5.960  23.366  0.00  0.00    +0.244 C 
ATOM      7  O   GLU A   4     -11.817   7.081  22.962  0.00  0.00    -0.273 OA
ATOM      8  N   PRO A   5     -11.595   4.861  22.599  0.00  0.00    -0.272 N 
ATOM      9  CA  PRO A   5     -11.227   3.468  22.862  0.00  0.00    +0.152 C 
ATOM     10  CB  PRO A   5     -12.370   2.717  22.185  0.00  0.00    +0.031 C 
ATOM     11  CG  PRO A   5     -12.595   3.535  20.924  0.00  0.00    +0.024 C 
ATOM     12  CD  PRO A   5     -12.288   4.980  21.294  0.00  0.00    +0.094 C 
BRANCH   9  13
ATOM     13  C   PRO A   5      -9.904   3.095  22.196  0.00  0.00    +0.241 C 
ATOM     14  N   TYR A   6      -9.074   4.104  21.947  0.00  0.00    -0.298 N 
ATOM     15  H   TYR A   6      -9.362   5.068  22.209  0.00  0.00    +0.150 HD
ATOM     16  O   PRO A   5      -9.638   1.912  21.943  0.00  0.00    -0.273 OA
BRANCH  14  17
ATOM     17  CA  TYR A   6      -7.771   3.902  21.317  0.00  0.00    +0.141 C 
BRANCH  17  18
ATOM     18  C   TYR A   6      -6.742   3.264  22.259  0.00  0.00    +0.227 C 
ATOM     19  O   TYR A   6      -6.071   2.292  21.890  0.00  0.00    -0.286 OA
ENDBRANCH  17  18
BRANCH  17  20
ATOM     20  CB  TYR A   6      -7.236   5.240  20.785  0.00  0.00    +0.054 C 
BRANCH  20  21
ATOM     21  CG  TYR A   6      -8.060   5.779  19.651  0.00  0.00    -0.020 A 
ATOM     22  CD2 TYR A   6      -9.013   6.760  19.879  0.00  0.00    -0.001 A 
ATOM     23  CE2 TYR A   6      -9.799   7.261  18.843  0.00  0.00    +0.036 A 
ATOM     24  CZ  TYR A   6      -9.617   6.781  17.561  0.00  0.00    +0.134 A 
ATOM     25  CE1 TYR A   6      -8.667   5.798  17.305  0.00  0.00    +0.036 A 
ATOM     26  CD1 TYR A   6      -7.892   5.307  18.353  0.00  0.00    -0.001 A 
BRANCH  24  27
ATOM     27  OH  TYR A   6     -10.399   7.280  16.548  0.00  0.00    -0.506 OA
ATOM     28  HH  TYR A   6     -10.152   6.841  15.695  0.00  0.00    +0.292 HD
ENDBRANCH  24  27
ENDBRANCH  20  21
ENDBRANCH  17  20
ENDBRANCH  14  17
ENDBRANCH   9  13
ENDBRANCH   5   6
BRANCH   5  29
ATOM     29  CB  GLU A   4     -12.186   5.864  25.731  0.00  0.00    +0.041 C 
BRANCH  29  30
ATOM     30  CG  GLU A   4     -11.876   5.697  27.203  0.00  0.00    +0.116 C 
BRANCH  30  31
ATOM     31  CD  GLU A   4     -13.123   5.697  28.066  0.00  0.00    +0.365 C 
ATOM     32  OE2 GLU A   4     -13.052   6.193  29.211  0.00  0.00    -0.246 OA
ATOM     33  OE1 GLU A   4     -14.169   5.196  27.611  0.00  0.00    -0.246 OA
ENDBRANCH  30  31
ENDBRANCH  29  30
ENDBRANCH   5  29
ENDBRANCH   2   5
BRANCH   1  34
ATOM     34  CA  GLU A   3      -7.904   8.030  25.069  0.00  0.00    +0.149 C 
BRANCH  34  37
ATOM     35  C   LEU A   2      -6.019   8.211  26.613  0.00  0.00    +0.241 C 
ATOM     36  O   LEU A   2      -6.170   9.433  26.753  0.00  0.00    -0.273 OA
ATOM     37  N   GLU A   3      -6.802   7.461  25.842  0.00  0.00    -0.297 N 
ATOM     38  H   GLU A   3      -6.624   6.438  25.788  0.00  0.00    +0.150 HD
BRANCH  35  39
ATOM     39  CA  LEU A   2      -4.886   7.471  27.324  0.00  0.00    +0.149 C 
BRANCH  39  41
ATOM     40  C   ILE A   1      -3.095   8.013  25.777  0.00  0.00    +0.238 C 
ATOM     41  N   LEU A   2      -3.608   8.104  27.004  0.00  0.00    -0.297 N 
ATOM     42  H   LEU A   2      -3.095   8.630  27.740  0.00  0.00    +0.150 HD
ATOM     43  O   ILE A   1      -3.626   7.355  24.890  0.00  0.00    -0.274 OA
BRANCH  40  44
ATOM     44  CA  ILE A   1      -1.796   8.764  25.511  0.00  0.00    +0.145 C 
BRANCH  44  45
ATOM     45  N   ILE A   1      -1.013   7.969  24.572  0.00  0.00    -0.238 NA
ATOM     46  H   ILE A   1      -1.507   7.390  23.864  0.00  0.00    +0.142 HD
ENDBRANCH  44  45
BRANCH  44  47
ATOM     47  CB  ILE A   1      -2.043  10.179  24.914  0.00  0.00    +0.025 C 
ATOM     48  CG2 ILE A   1      -2.979  10.120  23.692  0.00  0.00    +0.002 C 
BRANCH  47  49
ATOM     49  CG1 ILE A   1      -2.515  11.190  25.967  0.00  0.00    +0.002 C 
ATOM     50  CD1 ILE A   1      -2.338  12.638  25.518  0.00  0.00    +0.000 C 
ENDBRANCH  47  49
ENDBRANCH  44  47
ENDBRANCH  40  44
ENDBRANCH  39  41
BRANCH  39  51
ATOM     51  CB  LEU A   2      -5.151   7.437  28.834  0.00  0.00    +0.029 C 
BRANCH  51  52
ATOM     52  CG  LEU A   2      -4.236   6.520  29.655  0.00  0.00    +0.002 C 
ATOM     53  CD2 LEU A   2      -4.365   6.864  31.131  0.00  0.00    +0.000 C 
ATOM     54  CD1 LEU A   2      -4.555   5.059  29.410  0.00  0.00    +0.000 C 
ENDBRANCH  51  52
ENDBRANCH  39  51
ENDBRANCH  35  39
ENDBRANCH  34  37
BRANCH  34  55
ATOM     55  CB  GLU A   3      -7.354   8.763  23.834  0.00  0.00    +0.041 C 
BRANCH  55  56
ATOM     56  CG  GLU A   3      -8.411   9.542  23.046  0.00  0.00    +0.116 C 
BRANCH  56  57
ATOM     57  CD  GLU A   3      -8.801  10.841  23.724  0.00  0.00    +0.365 C 
ATOM     58  OE2 GLU A   3      -9.971  10.960  24.137  0.00  0.00    -0.246 OA
ATOM     59  OE1 GLU A   3      -7.944  11.743  23.851  0.00  0.00    -0.246 OA
ENDBRANCH  56  57
ENDBRANCH  55  56
ENDBRANCH  34  55
ENDBRANCH   1  34
TORSDOF 24
REMARK  Name = ../refined-set-2016/3fv1/3fv1_pocket.pdb
REMARK  235 active torsions:
REMARK  status: ('A' for Active; 'I' for Inactive)
REMARK    1  A    between atoms: _1  and  _3
REMARK    2  A    between atoms: _3  and  _4
REMARK    3  A    between atoms: _3  and  _6
REMARK    4  A    between atoms: _6  and  _7
REMARK    5  A    between atoms: _10  and  _12
REMARK    6  A    between atoms: _12  and  _13
REMARK    7  A    between atoms: _12  and  _15
REMARK    8  A    between atoms: _15  and  _16
REMARK    9  A    between atoms: _19  and  _21
REMARK   10  A    between atoms: _21  and  _22
REMARK   11  A    between atoms: _21  and  _24
REMARK   12  A    between atoms: _24  and  _25
REMARK   13  A    between atoms: _25  and  _26
REMARK   14  A    between atoms: _29  and  _31
REMARK   15  A    between atoms: _31  and  _32
REMARK   16  A    between atoms: _31  and  _34
REMARK   17  A    between atoms: _34  and  _35
REMARK   18  A    between atoms: _35  and  _36
REMARK   19  A    between atoms: _40  and  _41
REMARK   20  A    between atoms: _46  and  _48
REMARK   21  A    between atoms: _48  and  _49
REMARK   22  A    between atoms: _48  and  _51
REMARK   23  A    between atoms: _51  and  _52
REMARK   24  A    between atoms: _57  and  _58
REMARK   25  A    between atoms: _60  and  _62
REMARK   26  A    between atoms: _62  and  _63
REMARK   27  A    between atoms: _62  and  _65
REMARK   28  A    between atoms: _67  and  _69
REMARK   29  A    between atoms: _69  and  _70
REMARK   30  A    between atoms: _69  and  _72
REMARK   31  A    between atoms: _72  and  _73
REMARK   32  A    between atoms: _73  and  _74
REMARK   33  A    between atoms: _74  and  _75
REMARK   34  A    between atoms: _75  and  _76
REMARK   35  A    between atoms: _80  and  _82
REMARK   36  A    between atoms: _82  and  _83
REMARK   37  A    between atoms: _82  and  _85
REMARK   38  A    between atoms: _85  and  _86
REMARK   39  A    between atoms: _91  and  _92
REMARK   40  A    between atoms: _94  and  _96
REMARK   41  A    between atoms: _96  and  _97
REMARK   42  A    between atoms: _99  and  _101
REMARK   43  A    between atoms: _101  and  _102
REMARK   44  A    between atoms: _105  and  _107
REMARK   45  A    between atoms: _107  and  _108
REMARK   46  A    between atoms: _107  and  _110
REMARK   47  A    between atoms: _110  and  _111
REMARK   48  A    between atoms: _121  and  _123
REMARK   49  A    between atoms: _123  and  _124
REMARK   50  A    between atoms: _126  and  _128
REMARK   51  A    between atoms: _128  and  _129
REMARK   52  A    between atoms: _128  and  _131
REMARK   53  A    between atoms: _131  and  _132
REMARK   54  A    between atoms: _132  and  _133
REMARK   55  A    between atoms: _135  and  _137
REMARK   56  A    between atoms: _137  and  _138
REMARK   57  A    between atoms: _137  and  _140
REMARK   58  A    between atoms: _143  and  _145
REMARK   59  A    between atoms: _145  and  _146
REMARK   60  A    between atoms: _150  and  _151
REMARK   61  A    between atoms: _156  and  _158
REMARK   62  A    between atoms: _158  and  _159
REMARK   63  A    between atoms: _158  and  _161
REMARK   64  A    between atoms: _161  and  _162
REMARK   65  A    between atoms: _165  and  _167
REMARK   66  A    between atoms: _167  and  _168
REMARK   67  A    between atoms: _167  and  _170
REMARK   68  A    between atoms: _170  and  _171
REMARK   69  A    between atoms: _174  and  _176
REMARK   70  A    between atoms: _176  and  _177
REMARK   71  A    between atoms: _176  and  _179
REMARK   72  A    between atoms: _179  and  _180
REMARK   73  A    between atoms: _183  and  _185
REMARK   74  A    between atoms: _185  and  _186
REMARK   75  A    between atoms: _185  and  _188
REMARK   76  A    between atoms: _188  and  _189
REMARK   77  A    between atoms: _192  and  _194
REMARK   78  A    between atoms: _194  and  _195
REMARK   79  A    between atoms: _194  and  _197
REMARK   80  A    between atoms: _197  and  _198
REMARK   81  A    between atoms: _198  and  _199
REMARK   82  A    between atoms: _199  and  _200
REMARK   83  A    between atoms: _209  and  _211
REMARK   84  A    between atoms: _211  and  _212
REMARK   85  A    between atoms: _211  and  _214
REMARK   86  A    between atoms: _214  and  _215
REMARK   87  A    between atoms: _221  and  _223
REMARK   88  A    between atoms: _223  and  _224
REMARK   89  A    between atoms: _223  and  _226
REMARK   90  A    between atoms: _226  and  _227
REMARK   91  A    between atoms: _230  and  _232
REMARK   92  A    between atoms: _232  and  _233
REMARK   93  A    between atoms: _235  and  _237
REMARK   94  A    between atoms: _237  and  _238
REMARK   95  A    between atoms: _237  and  _240
REMARK   96  A    between atoms: _240  and  _241
REMARK   97  A    between atoms: _244  and  _246
REMARK   98  A    between atoms: _246  and  _247
REMARK   99  A    between atoms: _246  and  _249
REMARK  100  A    between atoms: _249  and  _250
REMARK  101  A    between atoms: _252  and  _254
REMARK  102  A    between atoms: _254  and  _255
REMARK  103  A    between atoms: _254  and  _257
REMARK  104  A    between atoms: _257  and  _258
REMARK  105  A    between atoms: _261  and  _263
REMARK  106  A    between atoms: _263  and  _264
REMARK  107  A    between atoms: _267  and  _269
REMARK  108  A    between atoms: _269  and  _270
REMARK  109  A    between atoms: _269  and  _272
REMARK  110  A    between atoms: _275  and  _277
REMARK  111  A    between atoms: _277  and  _278
REMARK  112  A    between atoms: _277  and  _280
REMARK  113  A    between atoms: _280  and  _281
REMARK  114  A    between atoms: _281  and  _282
REMARK  115  A    between atoms: _282  and  _283
REMARK  116  A    between atoms: _292  and  _294
REMARK  117  A    between atoms: _294  and  _295
REMARK  118  A    between atoms: _294  and  _297
REMARK  119  A    between atoms: _297  and  _298
REMARK  120  A    between atoms: _301  and  _303
REMARK  121  A    between atoms: _303  and  _304
REMARK  122  A    between atoms: _306  and  _308
REMARK  123  A    between atoms: _308  and  _309
REMARK  124  A    between atoms: _308  and  _311
REMARK  125  A    between atoms: _311  and  _312
REMARK  126  A    between atoms: _314  and  _316
REMARK  127  A    between atoms: _316  and  _317
REMARK  128  A    between atoms: _316  and  _319
REMARK  129  A    between atoms: _319  and  _320
REMARK  130  A    between atoms: _323  and  _325
REMARK  131  A    between atoms: _325  and  _326
REMARK  132  A    between atoms: _325  and  _328
REMARK  133  A    between atoms: _328  and  _329
REMARK  134  A    between atoms: _329  and  _330
REMARK  135  A    between atoms: _332  and  _334
REMARK  136  A    between atoms: _334  and  _335
REMARK  137  A    between atoms: _334  and  _337
REMARK  138  A    between atoms: _337  and  _338
REMARK  139  A    between atoms: _341  and  _343
REMARK  140  A    between atoms: _343  and  _344
REMARK  141  A    between atoms: _343  and  _346
REMARK  142  A    between atoms: _346  and  _347
REMARK  143  A    between atoms: _353  and  _355
REMARK  144  A    between atoms: _355  and  _356
REMARK  145  A    between atoms: _355  and  _358
REMARK  146  A    between atoms: _358  and  _359
REMARK  147  A    between atoms: _365  and  _367
REMARK  148  A    between atoms: _367  and  _368
REMARK  149  A    between atoms: _367  and  _370
REMARK  150  A    between atoms: _373  and  _375
REMARK  151  A    between atoms: _375  and  _376
REMARK  152  A    between atoms: _375  and  _378
REMARK  153  A    between atoms: _378  and  _379
REMARK  154  A    between atoms: _379  and  _380
REMARK  155  A    between atoms: _380  and  _381
REMARK  156  A    between atoms: _390  and  _392
REMARK  157  A    between atoms: _392  and  _393
REMARK  158  A    between atoms: _392  and  _395
REMARK  159  A    between atoms: _395  and  _396
REMARK  160  A    between atoms: _401  and  _403
REMARK  161  A    between atoms: _403  and  _404
REMARK  162  A    between atoms: _403  and  _406
REMARK  163  A    between atoms: _406  and  _407
REMARK  164  A    between atoms: _409  and  _411
REMARK  165  A    between atoms: _411  and  _412
REMARK  166  A    between atoms: _411  and  _414
REMARK  167  A    between atoms: _414  and  _415
REMARK  168  A    between atoms: _418  and  _420
REMARK  169  A    between atoms: _420  and  _421
REMARK  170  A    between atoms: _423  and  _425
REMARK  171  A    between atoms: _425  and  _426
REMARK  172  A    between atoms: _425  and  _428
REMARK  173  A    between atoms: _428  and  _429
REMARK  174  A    between atoms: _432  and  _434
REMARK  175  A    between atoms: _434  and  _435
REMARK  176  A    between atoms: _434  and  _437
REMARK  177  A    between atoms: _437  and  _438
REMARK  178  A    between atoms: _441  and  _443
REMARK  179  A    between atoms: _443  and  _444
REMARK  180  A    between atoms: _443  and  _446
REMARK  181  A    between atoms: _446  and  _447
REMARK  182  A    between atoms: _450  and  _452
REMARK  183  A    between atoms: _452  and  _453
REMARK  184  A    between atoms: _452  and  _455
REMARK  185  A    between atoms: _455  and  _456
REMARK  186  A    between atoms: _456  and  _457
REMARK  187  A    between atoms: _459  and  _461
REMARK  188  A    between atoms: _461  and  _462
REMARK  189  A    between atoms: _461  and  _464
REMARK  190  A    between atoms: _464  and  _465
REMARK  191  A    between atoms: _465  and  _466
REMARK  192  A    between atoms: _469  and  _471
REMARK  193  A    between atoms: _471  and  _472
REMARK  194  A    between atoms: _471  and  _474
REMARK  195  A    between atoms: _474  and  _475
REMARK  196  A    between atoms: _477  and  _479
REMARK  197  A    between atoms: _479  and  _480
REMARK  198  A    between atoms: _479  and  _482
REMARK  199  A    between atoms: _482  and  _483
REMARK  200  A    between atoms: _486  and  _488
REMARK  201  A    between atoms: _488  and  _489
REMARK  202  A    between atoms: _488  and  _491
REMARK  203  A    between atoms: _491  and  _492
REMARK  204  A    between atoms: _494  and  _496
REMARK  205  A    between atoms: _496  and  _497
REMARK  206  A    between atoms: _496  and  _499
REMARK  207  A    between atoms: _499  and  _500
REMARK  208  A    between atoms: _503  and  _505
REMARK  209  A    between atoms: _505  and  _506
REMARK  210  A    between atoms: _505  and  _508
REMARK  211  A    between atoms: _508  and  _509
REMARK  212  A    between atoms: _514  and  _515
REMARK  213  A    between atoms: _517  and  _519
REMARK  214  A    between atoms: _519  and  _520
REMARK  215  A    between atoms: _519  and  _522
REMARK  216  A    between atoms: _525  and  _527
REMARK  217  A    between atoms: _527  and  _528
REMARK  218  A    between atoms: _527  and  _530
REMARK  219  A    between atoms: _530  and  _531
REMARK  220  A    between atoms: _531  and  _532
REMARK  221  A    between atoms: _532  and  _533
REMARK  222  A    between atoms: _533  and  _534
REMARK  223  A    between atoms: _538  and  _540
REMARK  224  A    between atoms: _540  and  _541
REMARK  225  A    between atoms: _543  and  _545
REMARK  226  A    between atoms: _545  and  _546
REMARK  227  A    between atoms: _545  and  _548
REMARK  228  A    between atoms: _548  and  _549
REMARK  229  A    between atoms: _554  and  _555
REMARK  230  A    between atoms: _557  and  _559
REMARK  231  A    between atoms: _559  and  _560
REMARK  232  A    between atoms: _562  and  _564
REMARK  233  A    between atoms: _564  and  _565
REMARK  234  A    between atoms: _564  and  _567
REMARK  235  A    between atoms: _567  and  _568
REMARK                            x       y       z     vdW  Elec       q    Type
REMARK                         _______ _______ _______ _____ _____    ______ ____
ROOT
ATOM      1  CA  CYS A   1      -4.050   1.449  18.991  0.00  0.00    +0.145 C 
ENDROOT
BRANCH   1   2
ATOM      2  N   CYS A   1      -5.467   1.199  19.282  0.00  0.00    -0.238 NA
ATOM      3  H   CYS A   1      -5.955   1.770  20.001  0.00  0.00    +0.142 HD
ENDBRANCH   1   2
BRANCH   1   4
ATOM      4  CB  CYS A   1      -3.592   2.777  19.563  0.00  0.00    +0.094 C 
ATOM      5  SG  CYS A   1      -4.270   4.165  18.617  0.00  0.00    -0.080 S 
ENDBRANCH   1   4
BRANCH   1   6
ATOM      6  C   CYS A   1      -3.149   0.326  19.487  0.00  0.00    +0.225 C 
ATOM      7  O   CYS A   1      -2.096   0.079  18.901  0.00  0.00    -0.287 OA
ENDBRANCH   1   6
TORSDOF 3
REMARK  Name = ../refined-set-2016/3fv1/3fv1_pocket.pdb
REMARK  235 active torsions:
REMARK  status: ('A' for Active; 'I' for Inactive)
REMARK    1  A    between atoms: _1  and  _3
REMARK    2  A    between atoms: _3  and  _4
REMARK    3  A    between atoms: _3  and  _6
REMARK    4  A    between atoms: _6  and  _7
REMARK    5  A    between atoms: _10  and  _12
REMARK    6  A    between atoms: _12  and  _13
REMARK    7  A    between atoms: _12  and  _15
REMARK    8  A    between atoms: _15  and  _16
REMARK    9  A    between atoms: _19  and  _21
REMARK   10  A    between atoms: _21  and  _22
REMARK   11  A    between atoms: _21  and  _24
REMARK   12  A    between atoms: _24  and  _25
REMARK   13  A    between atoms: _25  and  _26
REMARK   14  A    between atoms: _29  and  _31
REMARK   15  A    between atoms: _31  and  _32
REMARK   16  A    between atoms: _31  and  _34
REMARK   17  A    between atoms: _34  and  _35
REMARK   18  A    between atoms: _35  and  _36
REMARK   19  A    between atoms: _40  and  _41
REMARK   20  A    between atoms: _46  and  _48
REMARK   21  A    between atoms: _48  and  _49
REMARK   22  A    between atoms: _48  and  _51
REMARK   23  A    between atoms: _51  and  _52
REMARK   24  A    between atoms: _57  and  _58
REMARK   25  A    between atoms: _60  and  _62
REMARK   26  A    between atoms: _62  and  _63
REMARK   27  A    between atoms: _62  and  _65
REMARK   28  A    between atoms: _67  and  _69
REMARK   29  A    between atoms: _69  and  _70
REMARK   30  A    between atoms: _69  and  _72
REMARK   31  A    between atoms: _72  and  _73
REMARK   32  A    between atoms: _73  and  _74
REMARK   33  A    between atoms: _74  and  _75
REMARK   34  A    between atoms: _75  and  _76
REMARK   35  A    between atoms: _80  and  _82
REMARK   36  A    between atoms: _82  and  _83
REMARK   37  A    between atoms: _82  and  _85
REMARK   38  A    between atoms: _85  and  _86
REMARK   39  A    between atoms: _91  and  _92
REMARK   40  A    between atoms: _94  and  _96
REMARK   41  A    between atoms: _96  and  _97
REMARK   42  A    between atoms: _99  and  _101
REMARK   43  A    between atoms: _101  and  _102
REMARK   44  A    between atoms: _105  and  _107
REMARK   45  A    between atoms: _107  and  _108
REMARK   46  A    between atoms: _107  and  _110
REMARK   47  A    between atoms: _110  and  _111
REMARK   48  A    between atoms: _121  and  _123
REMARK   49  A    between atoms: _123  and  _124
REMARK   50  A    between atoms: _126  and  _128
REMARK   51  A    between atoms: _128  and  _129
REMARK   52  A    between atoms: _128  and  _131
REMARK   53  A    between atoms: _131  and  _132
REMARK   54  A    between atoms: _132  and  _133
REMARK   55  A    between atoms: _135  and  _137
REMARK   56  A    between atoms: _137  and  _138
REMARK   57  A    between atoms: _137  and  _140
REMARK   58  A    between atoms: _143  and  _145
REMARK   59  A    between atoms: _145  and  _146
REMARK   60  A    between atoms: _150  and  _151
REMARK   61  A    between atoms: _156  and  _158
REMARK   62  A    between atoms: _158  and  _159
REMARK   63  A    between atoms: _158  and  _161
REMARK   64  A    between atoms: _161  and  _162
REMARK   65  A    between atoms: _165  and  _167
REMARK   66  A    between atoms: _167  and  _168
REMARK   67  A    between atoms: _167  and  _170
REMARK   68  A    between atoms: _170  and  _171
REMARK   69  A    between atoms: _174  and  _176
REMARK   70  A    between atoms: _176  and  _177
REMARK   71  A    between atoms: _176  and  _179
REMARK   72  A    between atoms: _179  and  _180
REMARK   73  A    between atoms: _183  and  _185
REMARK   74  A    between atoms: _185  and  _186
REMARK   75  A    between atoms: _185  and  _188
REMARK   76  A    between atoms: _188  and  _189
REMARK   77  A    between atoms: _192  and  _194
REMARK   78  A    between atoms: _194  and  _195
REMARK   79  A    between atoms: _194  and  _197
REMARK   80  A    between atoms: _197  and  _198
REMARK   81  A    between atoms: _198  and  _199
REMARK   82  A    between atoms: _199  and  _200
REMARK   83  A    between atoms: _209  and  _211
REMARK   84  A    between atoms: _211  and  _212
REMARK   85  A    between atoms: _211  and  _214
REMARK   86  A    between atoms: _214  and  _215
REMARK   87  A    between atoms: _221  and  _223
REMARK   88  A    between atoms: _223  and  _224
REMARK   89  A    between atoms: _223  and  _226
REMARK   90  A    between atoms: _226  and  _227
REMARK   91  A    between atoms: _230  and  _232
REMARK   92  A    between atoms: _232  and  _233
REMARK   93  A    between atoms: _235  and  _237
REMARK   94  A    between atoms: _237  and  _238
REMARK   95  A    between atoms: _237  and  _240
REMARK   96  A    between atoms: _240  and  _241
REMARK   97  A    between atoms: _244  and  _246
REMARK   98  A    between atoms: _246  and  _247
REMARK   99  A    between atoms: _246  and  _249
REMARK  100  A    between atoms: _249  and  _250
REMARK  101  A    between atoms: _252  and  _254
REMARK  102  A    between atoms: _254  and  _255
REMARK  103  A    between atoms: _254  and  _257
REMARK  104  A    between atoms: _257  and  _258
REMARK  105  A    between atoms: _261  and  _263
REMARK  106  A    between atoms: _263  and  _264
REMARK  107  A    between atoms: _267  and  _269
REMARK  108  A    between atoms: _269  and  _270
REMARK  109  A    between atoms: _269  and  _272
REMARK  110  A    between atoms: _275  and  _277
REMARK  111  A    between atoms: _277  and  _278
REMARK  112  A    between atoms: _277  and  _280
REMARK  113  A    between atoms: _280  and  _281
REMARK  114  A    between atoms: _281  and  _282
REMARK  115  A    between atoms: _282  and  _283
REMARK  116  A    between atoms: _292  and  _294
REMARK  117  A    between atoms: _294  and  _295
REMARK  118  A    between atoms: _294  and  _297
REMARK  119  A    between atoms: _297  and  _298
REMARK  120  A    between atoms: _301  and  _303
REMARK  121  A    between atoms: _303  and  _304
REMARK  122  A    between atoms: _306  and  _308
REMARK  123  A    between atoms: _308  and  _309
REMARK  124  A    between atoms: _308  and  _311
REMARK  125  A    between atoms: _311  and  _312
REMARK  126  A    between atoms: _314  and  _316
REMARK  127  A    between atoms: _316  and  _317
REMARK  128  A    between atoms: _316  and  _319
REMARK  129  A    between atoms: _319  and  _320
REMARK  130  A    between atoms: _323  and  _325
REMARK  131  A    between atoms: _325  and  _326
REMARK  132  A    between atoms: _325  and  _328
REMARK  133  A    between atoms: _328  and  _329
REMARK  134  A    between atoms: _329  and  _330
REMARK  135  A    between atoms: _332  and  _334
REMARK  136  A    between atoms: _334  and  _335
REMARK  137  A    between atoms: _334  and  _337
REMARK  138  A    between atoms: _337  and  _338
REMARK  139  A    between atoms: _341  and  _343
REMARK  140  A    between atoms: _343  and  _344
REMARK  141  A    between atoms: _343  and  _346
REMARK  142  A    between atoms: _346  and  _347
REMARK  143  A    between atoms: _353  and  _355
REMARK  144  A    between atoms: _355  and  _356
REMARK  145  A    between atoms: _355  and  _358
REMARK  146  A    between atoms: _358  and  _359
REMARK  147  A    between atoms: _365  and  _367
REMARK  148  A    between atoms: _367  and  _368
REMARK  149  A    between atoms: _367  and  _370
REMARK  150  A    between atoms: _373  and  _375
REMARK  151  A    between atoms: _375  and  _376
REMARK  152  A    between atoms: _375  and  _378
REMARK  153  A    between atoms: _378  and  _379
REMARK  154  A    between atoms: _379  and  _380
REMARK  155  A    between atoms: _380  and  _381
REMARK  156  A    between atoms: _390  and  _392
REMARK  157  A    between atoms: _392  and  _393
REMARK  158  A    between atoms: _392  and  _395
REMARK  159  A    between atoms: _395  and  _396
REMARK  160  A    between atoms: _401  and  _403
REMARK  161  A    between atoms: _403  and  _404
REMARK  162  A    between atoms: _403  and  _406
REMARK  163  A    between atoms: _406  and  _407
REMARK  164  A    between atoms: _409  and  _411
REMARK  165  A    between atoms: _411  and  _412
REMARK  166  A    between atoms: _411  and  _414
REMARK  167  A    between atoms: _414  and  _415
REMARK  168  A    between atoms: _418  and  _420
REMARK  169  A    between atoms: _420  and  _421
REMARK  170  A    between atoms: _423  and  _425
REMARK  171  A    between atoms: _425  and  _426
REMARK  172  A    between atoms: _425  and  _428
REMARK  173  A    between atoms: _428  and  _429
REMARK  174  A    between atoms: _432  and  _434
REMARK  175  A    between atoms: _434  and  _435
REMARK  176  A    between atoms: _434  and  _437
REMARK  177  A    between atoms: _437  and  _438
REMARK  178  A    between atoms: _441  and  _443
REMARK  179  A    between atoms: _443  and  _444
REMARK  180  A    between atoms: _443  and  _446
REMARK  181  A    between atoms: _446  and  _447
REMARK  182  A    between atoms: _450  and  _452
REMARK  183  A    between atoms: _452  and  _453
REMARK  184  A    between atoms: _452  and  _455
REMARK  185  A    between atoms: _455  and  _456
REMARK  186  A    between atoms: _456  and  _457
REMARK  187  A    between atoms: _459  and  _461
REMARK  188  A    between atoms: _461  and  _462
REMARK  189  A    between atoms: _461  and  _464
REMARK  190  A    between atoms: _464  and  _465
REMARK  191  A    between atoms: _465  and  _466
REMARK  192  A    between atoms: _469  and  _471
REMARK  193  A    between atoms: _471  and  _472
REMARK  194  A    between atoms: _471  and  _474
REMARK  195  A    between atoms: _474  and  _475
REMARK  196  A    between atoms: _477  and  _479
REMARK  197  A    between atoms: _479  and  _480
REMARK  198  A    between atoms: _479  and  _482
REMARK  199  A    between atoms: _482  and  _483
REMARK  200  A    between atoms: _486  and  _488
REMARK  201  A    between atoms: _488  and  _489
REMARK  202  A    between atoms: _488  and  _491
REMARK  203  A    between atoms: _491  and  _492
REMARK  204  A    between atoms: _494  and  _496
REMARK  205  A    between atoms: _496  and  _497
REMARK  206  A    between atoms: _496  and  _499
REMARK  207  A    between atoms: _499  and  _500
REMARK  208  A    between atoms: _503  and  _505
REMARK  209  A    between atoms: _505  and  _506
REMARK  210  A    between atoms: _505  and  _508
REMARK  211  A    between atoms: _508  and  _509
REMARK  212  A    between atoms: _514  and  _515
REMARK  213  A    between atoms: _517  and  _519
REMARK  214  A    between atoms: _519  and  _520
REMARK  215  A    between atoms: _519  and  _522
REMARK  216  A    between atoms: _525  and  _527
REMARK  217  A    between atoms: _527  and  _528
REMARK  218  A    between atoms: _527  and  _530
REMARK  219  A    between atoms: _530  and  _531
REMARK  220  A    between atoms: _531  and  _532
REMARK  221  A    between atoms: _532  and  _533
REMARK  222  A    between atoms: _533  and  _534
REMARK  223  A    between atoms: _538  and  _540
REMARK  224  A    between atoms: _540  and  _541
REMARK  225  A    between atoms: _543  and  _545
REMARK  226  A    between atoms: _545  and  _546
REMARK  227  A    between atoms: _545  and  _548
REMARK  228  A    between atoms: _548  and  _549
REMARK  229  A    between atoms: _554  and  _555
REMARK  230  A    between atoms: _557  and  _559
REMARK  231  A    between atoms: _559  and  _560
REMARK  232  A    between atoms: _562  and  _564
REMARK  233  A    between atoms: _564  and  _565
REMARK  234  A    between atoms: _564  and  _567
REMARK  235  A    between atoms: _567  and  _568
REMARK                            x       y       z     vdW  Elec       q    Type
REMARK                         _______ _______ _______ _____ _____    ______ ____
ROOT
ATOM      1  CA  TYR A   2      -0.874  15.385  22.088  0.00  0.00    +0.153 C 
ENDROOT
BRANCH   1   4
ATOM      2  C   LYS A   1      -0.281  15.535  24.430  0.00  0.00    +0.238 C 
ATOM      3  O   LYS A   1       0.649  14.746  24.278  0.00  0.00    -0.274 OA
ATOM      4  N   TYR A   2      -1.110  15.864  23.448  0.00  0.00    -0.297 N 
ATOM      5  H   TYR A   2      -1.934  16.467  23.648  0.00  0.00    +0.150 HD
BRANCH   2   6
ATOM      6  CA  LYS A   1      -0.545  16.203  25.770  0.00  0.00    +0.145 C 
BRANCH   6   7
ATOM      7  N   LYS A   1      -0.084  15.388  26.897  0.00  0.00    -0.238 NA
ATOM      8  H   LYS A   1       0.927  15.157  26.974  0.00  0.00    +0.142 HD
ENDBRANCH   6   7
BRANCH   6   9
ATOM      9  CB  LYS A   1       0.098  17.596  25.777  0.00  0.00    +0.026 C 
BRANCH   9  10
ATOM     10  CG  LYS A   1      -0.262  18.457  26.984  0.00  0.00    -0.000 C 
BRANCH  10  11
ATOM     11  CD  LYS A   1       0.696  19.617  27.073  0.00  0.00    -0.024 C 
BRANCH  11  12
ATOM     12  CE  LYS A   1       0.526  20.364  28.372  0.00  0.00    -0.086 C 
BRANCH  12  13
ATOM     13  NZ  LYS A   1      -0.708  21.181  28.328  0.00  0.00    +0.380 N 
ATOM     14  HZ1 LYS A   1      -0.816  21.692  29.227  0.00  0.00    -0.089 HD
ATOM     15  HZ2 LYS A   1      -1.529  20.560  28.180  0.00  0.00    -0.089 HD
ATOM     16  HZ3 LYS A   1      -0.643  21.863  27.546  0.00  0.00    -0.089 HD
ENDBRANCH  12  13
ENDBRANCH  11  12
ENDBRANCH  10  11
ENDBRANCH   9  10
ENDBRANCH   6   9
ENDBRANCH   2   6
ENDBRANCH   1   4
BRANCH   1  17
ATOM     17  C   TYR A   2       0.288  16.159  21.454  0.00  0.00    +0.241 C 
ATOM     18  N   GLY A   3       0.200  17.485  21.479  0.00  0.00    -0.295 N 
ATOM     19  H   GLY A   3      -0.676  17.933  21.814  0.00  0.00    +0.150 HD
ATOM     20  O   TYR A   2       1.243  15.560  20.960  0.00  0.00    -0.273 OA
BRANCH  18  21
ATOM     21  CA  GLY A   3       1.320  18.327  21.041  0.00  0.00    +0.176 C 
BRANCH  21  22
ATOM     22  C   GLY A   3       0.897  19.566  20.271  0.00  0.00    +0.243 C 
ATOM     23  N   ALA A   4       1.364  20.704  20.757  0.00  0.00    -0.298 N 
ATOM     24  H   ALA A   4       1.883  20.685  21.658  0.00  0.00    +0.150 HD
ATOM     25  O   GLY A   3       0.193  19.492  19.259  0.00  0.00    -0.273 OA
BRANCH  23  26
ATOM     26  CA  ALA A   4       1.182  21.980  20.085  0.00  0.00    +0.137 C 
ATOM     27  CB  ALA A   4      -0.071  22.674  20.606  0.00  0.00    +0.030 C 
BRANCH  26  28
ATOM     28  C   ALA A   4       2.403  22.840  20.332  0.00  0.00    +0.227 C 
ATOM     29  O   ALA A   4       3.247  22.499  21.151  0.00  0.00    -0.286 OA
ENDBRANCH  26  28
ENDBRANCH  23  26
ENDBRANCH  21  22
ENDBRANCH  18  21
ENDBRANCH   1  17
BRANCH   1  30
ATOM     30  CB  TYR A   2      -2.148  15.506  21.245  0.00  0.00    +0.055 C 
BRANCH  30  31
ATOM     31  CG  TYR A   2      -3.155  14.429  21.515  0.00  0.00    -0.020 A 
ATOM     32  CD2 TYR A   2      -4.011  14.495  22.624  0.00  0.00    -0.001 A 
ATOM     33  CE2 TYR A   2      -4.945  13.473  22.864  0.00  0.00    +0.036 A 
ATOM     34  CZ  TYR A   2      -5.022  12.398  21.988  0.00  0.00    +0.134 A 
ATOM     35  CE1 TYR A   2      -4.198  12.314  20.884  0.00  0.00    +0.036 A 
ATOM     36  CD1 TYR A   2      -3.256  13.335  20.655  0.00  0.00    -0.001 A 
BRANCH  34  37
ATOM     37  OH  TYR A   2      -5.935  11.395  22.200  0.00  0.00    -0.506 OA
ATOM     38  HH  TYR A   2      -6.849  11.775  22.190  0.00  0.00    +0.292 HD
ENDBRANCH  34  37
ENDBRANCH  30  31
ENDBRANCH   1  30
TORSDOF 16
REMARK  Name = ../refined-set-2016/3fv1/3fv1_pocket.pdb
REMARK  235 active torsions:
REMARK  status: ('A' for Active; 'I' for Inactive)
REMARK    1  A    between atoms: _1  and  _3
REMARK    2  A    between atoms: _3  and  _4
REMARK    3  A    between atoms: _3  and  _6
REMARK    4  A    between atoms: _6  and  _7
REMARK    5  A    between atoms: _10  and  _12
REMARK    6  A    between atoms: _12  and  _13
REMARK    7  A    between atoms: _12  and  _15
REMARK    8  A    between atoms: _15  and  _16
REMARK    9  A    between atoms: _19  and  _21
REMARK   10  A    between atoms: _21  and  _22
REMARK   11  A    between atoms: _21  and  _24
REMARK   12  A    between atoms: _24  and  _25
REMARK   13  A    between atoms: _25  and  _26
REMARK   14  A    between atoms: _29  and  _31
REMARK   15  A    between atoms: _31  and  _32
REMARK   16  A    between atoms: _31  and  _34
REMARK   17  A    between atoms: _34  and  _35
REMARK   18  A    between atoms: _35  and  _36
REMARK   19  A    between atoms: _40  and  _41
REMARK   20  A    between atoms: _46  and  _48
REMARK   21  A    between atoms: _48  and  _49
REMARK   22  A    between atoms: _48  and  _51
REMARK   23  A    between atoms: _51  and  _52
REMARK   24  A    between atoms: _57  and  _58
REMARK   25  A    between atoms: _60  and  _62
REMARK   26  A    between atoms: _62  and  _63
REMARK   27  A    between atoms: _62  and  _65
REMARK   28  A    between atoms: _67  and  _69
REMARK   29  A    between atoms: _69  and  _70
REMARK   30  A    between atoms: _69  and  _72
REMARK   31  A    between atoms: _72  and  _73
REMARK   32  A    between atoms: _73  and  _74
REMARK   33  A    between atoms: _74  and  _75
REMARK   34  A    between atoms: _75  and  _76
REMARK   35  A    between atoms: _80  and  _82
REMARK   36  A    between atoms: _82  and  _83
REMARK   37  A    between atoms: _82  and  _85
REMARK   38  A    between atoms: _85  and  _86
REMARK   39  A    between atoms: _91  and  _92
REMARK   40  A    between atoms: _94  and  _96
REMARK   41  A    between atoms: _96  and  _97
REMARK   42  A    between atoms: _99  and  _101
REMARK   43  A    between atoms: _101  and  _102
REMARK   44  A    between atoms: _105  and  _107
REMARK   45  A    between atoms: _107  and  _108
REMARK   46  A    between atoms: _107  and  _110
REMARK   47  A    between atoms: _110  and  _111
REMARK   48  A    between atoms: _121  and  _123
REMARK   49  A    between atoms: _123  and  _124
REMARK   50  A    between atoms: _126  and  _128
REMARK   51  A    between atoms: _128  and  _129
REMARK   52  A    between atoms: _128  and  _131
REMARK   53  A    between atoms: _131  and  _132
REMARK   54  A    between atoms: _132  and  _133
REMARK   55  A    between atoms: _135  and  _137
REMARK   56  A    between atoms: _137  and  _138
REMARK   57  A    between atoms: _137  and  _140
REMARK   58  A    between atoms: _143  and  _145
REMARK   59  A    between atoms: _145  and  _146
REMARK   60  A    between atoms: _150  and  _151
REMARK   61  A    between atoms: _156  and  _158
REMARK   62  A    between atoms: _158  and  _159
REMARK   63  A    between atoms: _158  and  _161
REMARK   64  A    between atoms: _161  and  _162
REMARK   65  A    between atoms: _165  and  _167
REMARK   66  A    between atoms: _167  and  _168
REMARK   67  A    between atoms: _167  and  _170
REMARK   68  A    between atoms: _170  and  _171
REMARK   69  A    between atoms: _174  and  _176
REMARK   70  A    between atoms: _176  and  _177
REMARK   71  A    between atoms: _176  and  _179
REMARK   72  A    between atoms: _179  and  _180
REMARK   73  A    between atoms: _183  and  _185
REMARK   74  A    between atoms: _185  and  _186
REMARK   75  A    between atoms: _185  and  _188
REMARK   76  A    between atoms: _188  and  _189
REMARK   77  A    between atoms: _192  and  _194
REMARK   78  A    between atoms: _194  and  _195
REMARK   79  A    between atoms: _194  and  _197
REMARK   80  A    between atoms: _197  and  _198
REMARK   81  A    between atoms: _198  and  _199
REMARK   82  A    between atoms: _199  and  _200
REMARK   83  A    between atoms: _209  and  _211
REMARK   84  A    between atoms: _211  and  _212
REMARK   85  A    between atoms: _211  and  _214
REMARK   86  A    between atoms: _214  and  _215
REMARK   87  A    between atoms: _221  and  _223
REMARK   88  A    between atoms: _223  and  _224
REMARK   89  A    between atoms: _223  and  _226
REMARK   90  A    between atoms: _226  and  _227
REMARK   91  A    between atoms: _230  and  _232
REMARK   92  A    between atoms: _232  and  _233
REMARK   93  A    between atoms: _235  and  _237
REMARK   94  A    between atoms: _237  and  _238
REMARK   95  A    between atoms: _237  and  _240
REMARK   96  A    between atoms: _240  and  _241
REMARK   97  A    between atoms: _244  and  _246
REMARK   98  A    between atoms: _246  and  _247
REMARK   99  A    between atoms: _246  and  _249
REMARK  100  A    between atoms: _249  and  _250
REMARK  101  A    between atoms: _252  and  _254
REMARK  102  A    between atoms: _254  and  _255
REMARK  103  A    between atoms: _254  and  _257
REMARK  104  A    between atoms: _257  and  _258
REMARK  105  A    between atoms: _261  and  _263
REMARK  106  A    between atoms: _263  and  _264
REMARK  107  A    between atoms: _267  and  _269
REMARK  108  A    between atoms: _269  and  _270
REMARK  109  A    between atoms: _269  and  _272
REMARK  110  A    between atoms: _275  and  _277
REMARK  111  A    between atoms: _277  and  _278
REMARK  112  A    between atoms: _277  and  _280
REMARK  113  A    between atoms: _280  and  _281
REMARK  114  A    between atoms: _281  and  _282
REMARK  115  A    between atoms: _282  and  _283
REMARK  116  A    between atoms: _292  and  _294
REMARK  117  A    between atoms: _294  and  _295
REMARK  118  A    between atoms: _294  and  _297
REMARK  119  A    between atoms: _297  and  _298
REMARK  120  A    between atoms: _301  and  _303
REMARK  121  A    between atoms: _303  and  _304
REMARK  122  A    between atoms: _306  and  _308
REMARK  123  A    between atoms: _308  and  _309
REMARK  124  A    between atoms: _308  and  _311
REMARK  125  A    between atoms: _311  and  _312
REMARK  126  A    between atoms: _314  and  _316
REMARK  127  A    between atoms: _316  and  _317
REMARK  128  A    between atoms: _316  and  _319
REMARK  129  A    between atoms: _319  and  _320
REMARK  130  A    between atoms: _323  and  _325
REMARK  131  A    between atoms: _325  and  _326
REMARK  132  A    between atoms: _325  and  _328
REMARK  133  A    between atoms: _328  and  _329
REMARK  134  A    between atoms: _329  and  _330
REMARK  135  A    between atoms: _332  and  _334
REMARK  136  A    between atoms: _334  and  _335
REMARK  137  A    between atoms: _334  and  _337
REMARK  138  A    between atoms: _337  and  _338
REMARK  139  A    between atoms: _341  and  _343
REMARK  140  A    between atoms: _343  and  _344
REMARK  141  A    between atoms: _343  and  _346
REMARK  142  A    between atoms: _346  and  _347
REMARK  143  A    between atoms: _353  and  _355
REMARK  144  A    between atoms: _355  and  _356
REMARK  145  A    between atoms: _355  and  _358
REMARK  146  A    between atoms: _358  and  _359
REMARK  147  A    between atoms: _365  and  _367
REMARK  148  A    between atoms: _367  and  _368
REMARK  149  A    between atoms: _367  and  _370
REMARK  150  A    between atoms: _373  and  _375
REMARK  151  A    between atoms: _375  and  _376
REMARK  152  A    between atoms: _375  and  _378
REMARK  153  A    between atoms: _378  and  _379
REMARK  154  A    between atoms: _379  and  _380
REMARK  155  A    between atoms: _380  and  _381
REMARK  156  A    between atoms: _390  and  _392
REMARK  157  A    between atoms: _392  and  _393
REMARK  158  A    between atoms: _392  and  _395
REMARK  159  A    between atoms: _395  and  _396
REMARK  160  A    between atoms: _401  and  _403
REMARK  161  A    between atoms: _403  and  _404
REMARK  162  A    between atoms: _403  and  _406
REMARK  163  A    between atoms: _406  and  _407
REMARK  164  A    between atoms: _409  and  _411
REMARK  165  A    between atoms: _411  and  _412
REMARK  166  A    between atoms: _411  and  _414
REMARK  167  A    between atoms: _414  and  _415
REMARK  168  A    between atoms: _418  and  _420
REMARK  169  A    between atoms: _420  and  _421
REMARK  170  A    between atoms: _423  and  _425
REMARK  171  A    between atoms: _425  and  _426
REMARK  172  A    between atoms: _425  and  _428
REMARK  173  A    between atoms: _428  and  _429
REMARK  174  A    between atoms: _432  and  _434
REMARK  175  A    between atoms: _434  and  _435
REMARK  176  A    between atoms: _434  and  _437
REMARK  177  A    between atoms: _437  and  _438
REMARK  178  A    between atoms: _441  and  _443
REMARK  179  A    between atoms: _443  and  _444
REMARK  180  A    between atoms: _443  and  _446
REMARK  181  A    between atoms: _446  and  _447
REMARK  182  A    between atoms: _450  and  _452
REMARK  183  A    between atoms: _452  and  _453
REMARK  184  A    between atoms: _452  and  _455
REMARK  185  A    between atoms: _455  and  _456
REMARK  186  A    between atoms: _456  and  _457
REMARK  187  A    between atoms: _459  and  _461
REMARK  188  A    between atoms: _461  and  _462
REMARK  189  A    between atoms: _461  and  _464
REMARK  190  A    between atoms: _464  and  _465
REMARK  191  A    between atoms: _465  and  _466
REMARK  192  A    between atoms: _469  and  _471
REMARK  193  A    between atoms: _471  and  _472
REMARK  194  A    between atoms: _471  and  _474
REMARK  195  A    between atoms: _474  and  _475
REMARK  196  A    between atoms: _477  and  _479
REMARK  197  A    between atoms: _479  and  _480
REMARK  198  A    between atoms: _479  and  _482
REMARK  199  A    between atoms: _482  and  _483
REMARK  200  A    between atoms: _486  and  _488
REMARK  201  A    between atoms: _488  and  _489
REMARK  202  A    between atoms: _488  and  _491
REMARK  203  A    between atoms: _491  and  _492
REMARK  204  A    between atoms: _494  and  _496
REMARK  205  A    between atoms: _496  and  _497
REMARK  206  A    between atoms: _496  and  _499
REMARK  207  A    between atoms: _499  and  _500
REMARK  208  A    between atoms: _503  and  _505
REMARK  209  A    between atoms: _505  and  _506
REMARK  210  A    between atoms: _505  and  _508
REMARK  211  A    between atoms: _508  and  _509
REMARK  212  A    between atoms: _514  and  _515
REMARK  213  A    between atoms: _517  and  _519
REMARK  214  A    between atoms: _519  and  _520
REMARK  215  A    between atoms: _519  and  _522
REMARK  216  A    between atoms: _525  and  _527
REMARK  217  A    between atoms: _527  and  _528
REMARK  218  A    between atoms: _527  and  _530
REMARK  219  A    between atoms: _530  and  _531
REMARK  220  A    between atoms: _531  and  _532
REMARK  221  A    between atoms: _532  and  _533
REMARK  222  A    between atoms: _533  and  _534
REMARK  223  A    between atoms: _538  and  _540
REMARK  224  A    between atoms: _540  and  _541
REMARK  225  A    between atoms: _543  and  _545
REMARK  226  A    between atoms: _545  and  _546
REMARK  227  A    between atoms: _545  and  _548
REMARK  228  A    between atoms: _548  and  _549
REMARK  229  A    between atoms: _554  and  _555
REMARK  230  A    between atoms: _557  and  _559
REMARK  231  A    between atoms: _559  and  _560
REMARK  232  A    between atoms: _562  and  _564
REMARK  233  A    between atoms: _564  and  _565
REMARK  234  A    between atoms: _564  and  _567
REMARK  235  A    between atoms: _567  and  _568
REMARK                            x       y       z     vdW  Elec       q    Type
REMARK                         _______ _______ _______ _____ _____    ______ ____
ROOT
ATOM      1  CG  TRP A   1       6.583  21.261  18.570  0.00  0.00    -0.002 A 
ATOM      2  CD2 TRP A   1       5.356  21.144  17.840  0.00  0.00    +0.013 A 
ATOM      3  CE3 TRP A   1       4.097  20.601  18.133  0.00  0.00    +0.001 A 
ATOM      4  CZ3 TRP A   1       3.090  20.673  17.161  0.00  0.00    +0.000 A 
ATOM      5  CH2 TRP A   1       3.328  21.277  15.917  0.00  0.00    +0.001 A 
ATOM      6  CZ2 TRP A   1       4.553  21.812  15.604  0.00  0.00    +0.017 A 
ATOM      7  CE2 TRP A   1       5.560  21.747  16.575  0.00  0.00    +0.056 A 
ATOM      8  NE1 TRP A   1       6.853  22.201  16.542  0.00  0.00    -0.352 N 
ATOM      9  HE1 TRP A   1       7.300  22.690  15.741  0.00  0.00    +0.166 HD
ATOM     10  CD1 TRP A   1       7.465  21.905  17.741  0.00  0.00    +0.068 A 
ENDROOT
BRANCH   1  11
ATOM     11  CB  TRP A   1       6.847  20.769  19.953  0.00  0.00    +0.053 C 
BRANCH  11  12
ATOM     12  CA  TRP A   1       6.563  21.812  21.031  0.00  0.00    +0.137 C 
BRANCH  12  13
ATOM     13  N   TRP A   1       7.605  22.838  21.023  0.00  0.00    -0.239 NA
ATOM     14  H   TRP A   1       8.583  22.555  20.810  0.00  0.00    +0.142 HD
ENDBRANCH  12  13
BRANCH  12  15
ATOM     15  C   TRP A   1       6.476  21.120  22.377  0.00  0.00    +0.224 C 
ATOM     16  O   TRP A   1       7.423  21.148  23.169  0.00  0.00    -0.287 OA
ENDBRANCH  12  15
ENDBRANCH  11  12
ENDBRANCH   1  11
TORSDOF 4
REMARK  Name = ../refined-set-2016/3fv1/3fv1_pocket.pdb
REMARK  235 active torsions:
REMARK  status: ('A' for Active; 'I' for Inactive)
REMARK    1  A    between atoms: _1  and  _3
REMARK    2  A    between atoms: _3  and  _4
REMARK    3  A    between atoms: _3  and  _6
REMARK    4  A    between atoms: _6  and  _7
REMARK    5  A    between atoms: _10  and  _12
REMARK    6  A    between atoms: _12  and  _13
REMARK    7  A    between atoms: _12  and  _15
REMARK    8  A    between atoms: _15  and  _16
REMARK    9  A    between atoms: _19  and  _21
REMARK   10  A    between atoms: _21  and  _22
REMARK   11  A    between atoms: _21  and  _24
REMARK   12  A    between atoms: _24  and  _25
REMARK   13  A    between atoms: _25  and  _26
REMARK   14  A    between atoms: _29  and  _31
REMARK   15  A    between atoms: _31  and  _32
REMARK   16  A    between atoms: _31  and  _34
REMARK   17  A    between atoms: _34  and  _35
REMARK   18  A    between atoms: _35  and  _36
REMARK   19  A    between atoms: _40  and  _41
REMARK   20  A    between atoms: _46  and  _48
REMARK   21  A    between atoms: _48  and  _49
REMARK   22  A    between atoms: _48  and  _51
REMARK   23  A    between atoms: _51  and  _52
REMARK   24  A    between atoms: _57  and  _58
REMARK   25  A    between atoms: _60  and  _62
REMARK   26  A    between atoms: _62  and  _63
REMARK   27  A    between atoms: _62  and  _65
REMARK   28  A    between atoms: _67  and  _69
REMARK   29  A    between atoms: _69  and  _70
REMARK   30  A    between atoms: _69  and  _72
REMARK   31  A    between atoms: _72  and  _73
REMARK   32  A    between atoms: _73  and  _74
REMARK   33  A    between atoms: _74  and  _75
REMARK   34  A    between atoms: _75  and  _76
REMARK   35  A    between atoms: _80  and  _82
REMARK   36  A    between atoms: _82  and  _83
REMARK   37  A    between atoms: _82  and  _85
REMARK   38  A    between atoms: _85  and  _86
REMARK   39  A    between atoms: _91  and  _92
REMARK   40  A    between atoms: _94  and  _96
REMARK   41  A    between atoms: _96  and  _97
REMARK   42  A    between atoms: _99  and  _101
REMARK   43  A    between atoms: _101  and  _102
REMARK   44  A    between atoms: _105  and  _107
REMARK   45  A    between atoms: _107  and  _108
REMARK   46  A    between atoms: _107  and  _110
REMARK   47  A    between atoms: _110  and  _111
REMARK   48  A    between atoms: _121  and  _123
REMARK   49  A    between atoms: _123  and  _124
REMARK   50  A    between atoms: _126  and  _128
REMARK   51  A    between atoms: _128  and  _129
REMARK   52  A    between atoms: _128  and  _131
REMARK   53  A    between atoms: _131  and  _132
REMARK   54  A    between atoms: _132  and  _133
REMARK   55  A    between atoms: _135  and  _137
REMARK   56  A    between atoms: _137  and  _138
REMARK   57  A    between atoms: _137  and  _140
REMARK   58  A    between atoms: _143  and  _145
REMARK   59  A    between atoms: _145  and  _146
REMARK   60  A    between atoms: _150  and  _151
REMARK   61  A    between atoms: _156  and  _158
REMARK   62  A    between atoms: _158  and  _159
REMARK   63  A    between atoms: _158  and  _161
REMARK   64  A    between atoms: _161  and  _162
REMARK   65  A    between atoms: _165  and  _167
REMARK   66  A    between atoms: _167  and  _168
REMARK   67  A    between atoms: _167  and  _170
REMARK   68  A    between atoms: _170  and  _171
REMARK   69  A    between atoms: _174  and  _176
REMARK   70  A    between atoms: _176  and  _177
REMARK   71  A    between atoms: _176  and  _179
REMARK   72  A    between atoms: _179  and  _180
REMARK   73  A    between atoms: _183  and  _185
REMARK   74  A    between atoms: _185  and  _186
REMARK   75  A    between atoms: _185  and  _188
REMARK   76  A    between atoms: _188  and  _189
REMARK   77  A    between atoms: _192  and  _194
REMARK   78  A    between atoms: _194  and  _195
REMARK   79  A    between atoms: _194  and  _197
REMARK   80  A    between atoms: _197  and  _198
REMARK   81  A    between atoms: _198  and  _199
REMARK   82  A    between atoms: _199  and  _200
REMARK   83  A    between atoms: _209  and  _211
REMARK   84  A    between atoms: _211  and  _212
REMARK   85  A    between atoms: _211  and  _214
REMARK   86  A    between atoms: _214  and  _215
REMARK   87  A    between atoms: _221  and  _223
REMARK   88  A    between atoms: _223  and  _224
REMARK   89  A    between atoms: _223  and  _226
REMARK   90  A    between atoms: _226  and  _227
REMARK   91  A    between atoms: _230  and  _232
REMARK   92  A    between atoms: _232  and  _233
REMARK   93  A    between atoms: _235  and  _237
REMARK   94  A    between atoms: _237  and  _238
REMARK   95  A    between atoms: _237  and  _240
REMARK   96  A    between atoms: _240  and  _241
REMARK   97  A    between atoms: _244  and  _246
REMARK   98  A    between atoms: _246  and  _247
REMARK   99  A    between atoms: _246  and  _249
REMARK  100  A    between atoms: _249  and  _250
REMARK  101  A    between atoms: _252  and  _254
REMARK  102  A    between atoms: _254  and  _255
REMARK  103  A    between atoms: _254  and  _257
REMARK  104  A    between atoms: _257  and  _258
REMARK  105  A    between atoms: _261  and  _263
REMARK  106  A    between atoms: _263  and  _264
REMARK  107  A    between atoms: _267  and  _269
REMARK  108  A    between atoms: _269  and  _270
REMARK  109  A    between atoms: _269  and  _272
REMARK  110  A    between atoms: _275  and  _277
REMARK  111  A    between atoms: _277  and  _278
REMARK  112  A    between atoms: _277  and  _280
REMARK  113  A    between atoms: _280  and  _281
REMARK  114  A    between atoms: _281  and  _282
REMARK  115  A    between atoms: _282  and  _283
REMARK  116  A    between atoms: _292  and  _294
REMARK  117  A    between atoms: _294  and  _295
REMARK  118  A    between atoms: _294  and  _297
REMARK  119  A    between atoms: _297  and  _298
REMARK  120  A    between atoms: _301  and  _303
REMARK  121  A    between atoms: _303  and  _304
REMARK  122  A    between atoms: _306  and  _308
REMARK  123  A    between atoms: _308  and  _309
REMARK  124  A    between atoms: _308  and  _311
REMARK  125  A    between atoms: _311  and  _312
REMARK  126  A    between atoms: _314  and  _316
REMARK  127  A    between atoms: _316  and  _317
REMARK  128  A    between atoms: _316  and  _319
REMARK  129  A    between atoms: _319  and  _320
REMARK  130  A    between atoms: _323  and  _325
REMARK  131  A    between atoms: _325  and  _326
REMARK  132  A    between atoms: _325  and  _328
REMARK  133  A    between atoms: _328  and  _329
REMARK  134  A    between atoms: _329  and  _330
REMARK  135  A    between atoms: _332  and  _334
REMARK  136  A    between atoms: _334  and  _335
REMARK  137  A    between atoms: _334  and  _337
REMARK  138  A    between atoms: _337  and  _338
REMARK  139  A    between atoms: _341  and  _343
REMARK  140  A    between atoms: _343  and  _344
REMARK  141  A    between atoms: _343  and  _346
REMARK  142  A    between atoms: _346  and  _347
REMARK  143  A    between atoms: _353  and  _355
REMARK  144  A    between atoms: _355  and  _356
REMARK  145  A    between atoms: _355  and  _358
REMARK  146  A    between atoms: _358  and  _359
REMARK  147  A    between atoms: _365  and  _367
REMARK  148  A    between atoms: _367  and  _368
REMARK  149  A    between atoms: _367  and  _370
REMARK  150  A    between atoms: _373  and  _375
REMARK  151  A    between atoms: _375  and  _376
REMARK  152  A    between atoms: _375  and  _378
REMARK  153  A    between atoms: _378  and  _379
REMARK  154  A    between atoms: _379  and  _380
REMARK  155  A    between atoms: _380  and  _381
REMARK  156  A    between atoms: _390  and  _392
REMARK  157  A    between atoms: _392  and  _393
REMARK  158  A    between atoms: _392  and  _395
REMARK  159  A    between atoms: _395  and  _396
REMARK  160  A    between atoms: _401  and  _403
REMARK  161  A    between atoms: _403  and  _404
REMARK  162  A    between atoms: _403  and  _406
REMARK  163  A    between atoms: _406  and  _407
REMARK  164  A    between atoms: _409  and  _411
REMARK  165  A    between atoms: _411  and  _412
REMARK  166  A    between atoms: _411  and  _414
REMARK  167  A    between atoms: _414  and  _415
REMARK  168  A    between atoms: _418  and  _420
REMARK  169  A    between atoms: _420  and  _421
REMARK  170  A    between atoms: _423  and  _425
REMARK  171  A    between atoms: _425  and  _426
REMARK  172  A    between atoms: _425  and  _428
REMARK  173  A    between atoms: _428  and  _429
REMARK  174  A    between atoms: _432  and  _434
REMARK  175  A    between atoms: _434  and  _435
REMARK  176  A    between atoms: _434  and  _437
REMARK  177  A    between atoms: _437  and  _438
REMARK  178  A    between atoms: _441  and  _443
REMARK  179  A    between atoms: _443  and  _444
REMARK  180  A    between atoms: _443  and  _446
REMARK  181  A    between atoms: _446  and  _447
REMARK  182  A    between atoms: _450  and  _452
REMARK  183  A    between atoms: _452  and  _453
REMARK  184  A    between atoms: _452  and  _455
REMARK  185  A    between atoms: _455  and  _456
REMARK  186  A    between atoms: _456  and  _457
REMARK  187  A    between atoms: _459  and  _461
REMARK  188  A    between atoms: _461  and  _462
REMARK  189  A    between atoms: _461  and  _464
REMARK  190  A    between atoms: _464  and  _465
REMARK  191  A    between atoms: _465  and  _466
REMARK  192  A    between atoms: _469  and  _471
REMARK  193  A    between atoms: _471  and  _472
REMARK  194  A    between atoms: _471  and  _474
REMARK  195  A    between atoms: _474  and  _475
REMARK  196  A    between atoms: _477  and  _479
REMARK  197  A    between atoms: _479  and  _480
REMARK  198  A    between atoms: _479  and  _482
REMARK  199  A    between atoms: _482  and  _483
REMARK  200  A    between atoms: _486  and  _488
REMARK  201  A    between atoms: _488  and  _489
REMARK  202  A    between atoms: _488  and  _491
REMARK  203  A    between atoms: _491  and  _492
REMARK  204  A    between atoms: _494  and  _496
REMARK  205  A    between atoms: _496  and  _497
REMARK  206  A    between atoms: _496  and  _499
REMARK  207  A    between atoms: _499  and  _500
REMARK  208  A    between atoms: _503  and  _505
REMARK  209  A    between atoms: _505  and  _506
REMARK  210  A    between atoms: _505  and  _508
REMARK  211  A    between atoms: _508  and  _509
REMARK  212  A    between atoms: _514  and  _515
REMARK  213  A    between atoms: _517  and  _519
REMARK  214  A    between atoms: _519  and  _520
REMARK  215  A    between atoms: _519  and  _522
REMARK  216  A    between atoms: _525  and  _527
REMARK  217  A    between atoms: _527  and  _528
REMARK  218  A    between atoms: _527  and  _530
REMARK  219  A    between atoms: _530  and  _531
REMARK  220  A    between atoms: _531  and  _532
REMARK  221  A    between atoms: _532  and  _533
REMARK  222  A    between atoms: _533  and  _534
REMARK  223  A    between atoms: _538  and  _540
REMARK  224  A    between atoms: _540  and  _541
REMARK  225  A    between atoms: _543  and  _545
REMARK  226  A    between atoms: _545  and  _546
REMARK  227  A    between atoms: _545  and  _548
REMARK  228  A    between atoms: _548  and  _549
REMARK  229  A    between atoms: _554  and  _555
REMARK  230  A    between atoms: _557  and  _559
REMARK  231  A    between atoms: _559  and  _560
REMARK  232  A    between atoms: _562  and  _564
REMARK  233  A    between atoms: _564  and  _565
REMARK  234  A    between atoms: _564  and  _567
REMARK  235  A    between atoms: _567  and  _568
REMARK                            x       y       z     vdW  Elec       q    Type
REMARK                         _______ _______ _______ _____ _____    ______ ____
ROOT
ATOM      1  CA  MET A   2       3.909  13.308  21.860  0.00  0.00    +0.149 C 
ENDROOT
BRANCH   1   4
ATOM      2  C   GLY A   1       4.071  15.260  23.312  0.00  0.00    +0.240 C 
ATOM      3  O   GLY A   1       5.316  15.233  23.305  0.00  0.00    -0.274 OA
ATOM      4  N   MET A   2       3.310  14.393  22.642  0.00  0.00    -0.297 N 
ATOM      5  H   MET A   2       2.275  14.489  22.675  0.00  0.00    +0.150 HD
BRANCH   2   6
ATOM      6  CA  GLY A   1       3.312  16.298  24.113  0.00  0.00    +0.169 C 
BRANCH   6   7
ATOM      7  N   GLY A   1       4.039  17.544  24.368  0.00  0.00    -0.236 NA
ATOM      8  H   GLY A   1       4.233  17.814  25.353  0.00  0.00    +0.142 HD
ENDBRANCH   6   7
ENDBRANCH   2   6
ENDBRANCH   1   4
BRANCH   1   9
ATOM      9  C   MET A   2       4.763  13.839  20.729  0.00  0.00    +0.241 C 
ATOM     10  O   MET A   2       5.782  13.237  20.384  0.00  0.00    -0.273 OA
ATOM     11  N   VAL A   3       4.367  14.979  20.158  0.00  0.00    -0.298 N 
ATOM     12  H   VAL A   3       3.516  15.468  20.502  0.00  0.00    +0.150 HD
BRANCH  11  13
ATOM     13  CA  VAL A   3       5.131  15.533  19.053  0.00  0.00    +0.137 C 
BRANCH  13  14
ATOM     14  CB  VAL A   3       4.417  16.756  18.440  0.00  0.00    +0.026 C 
ATOM     15  CG2 VAL A   3       3.051  16.335  17.893  0.00  0.00    +0.002 C 
ATOM     16  CG1 VAL A   3       5.250  17.368  17.319  0.00  0.00    +0.002 C 
ENDBRANCH  13  14
BRANCH  13  17
ATOM     17  C   VAL A   3       6.549  15.865  19.545  0.00  0.00    +0.227 C 
ATOM     18  O   VAL A   3       7.536  15.494  18.890  0.00  0.00    -0.286 OA
ENDBRANCH  13  17
ENDBRANCH  11  13
ENDBRANCH   1   9
BRANCH   1  19
ATOM     19  CB  MET A   2       2.835  12.375  21.324  0.00  0.00    +0.041 C 
BRANCH  19  20
ATOM     20  CG  MET A   2       2.194  11.504  22.405  0.00  0.00    +0.060 C 
BRANCH  20  21
ATOM     21  SD  MET A   2       0.902  10.437  21.750  0.00  0.00    -0.139 S 
ATOM     22  CE  MET A   2      -0.388  11.651  21.489  0.00  0.00    +0.069 C 
ENDBRANCH  20  21
ENDBRANCH  19  20
ENDBRANCH   1  19
TORSDOF 10
REMARK  Name = ../refined-set-2016/3fv1/3fv1_pocket.pdb
REMARK  235 active torsions:
REMARK  status: ('A' for Active; 'I' for Inactive)
REMARK    1  A    between atoms: _1  and  _3
REMARK    2  A    between atoms: _3  and  _4
REMARK    3  A    between atoms: _3  and  _6
REMARK    4  A    between atoms: _6  and  _7
REMARK    5  A    between atoms: _10  and  _12
REMARK    6  A    between atoms: _12  and  _13
REMARK    7  A    between atoms: _12  and  _15
REMARK    8  A    between atoms: _15  and  _16
REMARK    9  A    between atoms: _19  and  _21
REMARK   10  A    between atoms: _21  and  _22
REMARK   11  A    between atoms: _21  and  _24
REMARK   12  A    between atoms: _24  and  _25
REMARK   13  A    between atoms: _25  and  _26
REMARK   14  A    between atoms: _29  and  _31
REMARK   15  A    between atoms: _31  and  _32
REMARK   16  A    between atoms: _31  and  _34
REMARK   17  A    between atoms: _34  and  _35
REMARK   18  A    between atoms: _35  and  _36
REMARK   19  A    between atoms: _40  and  _41
REMARK   20  A    between atoms: _46  and  _48
REMARK   21  A    between atoms: _48  and  _49
REMARK   22  A    between atoms: _48  and  _51
REMARK   23  A    between atoms: _51  and  _52
REMARK   24  A    between atoms: _57  and  _58
REMARK   25  A    between atoms: _60  and  _62
REMARK   26  A    between atoms: _62  and  _63
REMARK   27  A    between atoms: _62  and  _65
REMARK   28  A    between atoms: _67  and  _69
REMARK   29  A    between atoms: _69  and  _70
REMARK   30  A    between atoms: _69  and  _72
REMARK   31  A    between atoms: _72  and  _73
REMARK   32  A    between atoms: _73  and  _74
REMARK   33  A    between atoms: _74  and  _75
REMARK   34  A    between atoms: _75  and  _76
REMARK   35  A    between atoms: _80  and  _82
REMARK   36  A    between atoms: _82  and  _83
REMARK   37  A    between atoms: _82  and  _85
REMARK   38  A    between atoms: _85  and  _86
REMARK   39  A    between atoms: _91  and  _92
REMARK   40  A    between atoms: _94  and  _96
REMARK   41  A    between atoms: _96  and  _97
REMARK   42  A    between atoms: _99  and  _101
REMARK   43  A    between atoms: _101  and  _102
REMARK   44  A    between atoms: _105  and  _107
REMARK   45  A    between atoms: _107  and  _108
REMARK   46  A    between atoms: _107  and  _110
REMARK   47  A    between atoms: _110  and  _111
REMARK   48  A    between atoms: _121  and  _123
REMARK   49  A    between atoms: _123  and  _124
REMARK   50  A    between atoms: _126  and  _128
REMARK   51  A    between atoms: _128  and  _129
REMARK   52  A    between atoms: _128  and  _131
REMARK   53  A    between atoms: _131  and  _132
REMARK   54  A    between atoms: _132  and  _133
REMARK   55  A    between atoms: _135  and  _137
REMARK   56  A    between atoms: _137  and  _138
REMARK   57  A    between atoms: _137  and  _140
REMARK   58  A    between atoms: _143  and  _145
REMARK   59  A    between atoms: _145  and  _146
REMARK   60  A    between atoms: _150  and  _151
REMARK   61  A    between atoms: _156  and  _158
REMARK   62  A    between atoms: _158  and  _159
REMARK   63  A    between atoms: _158  and  _161
REMARK   64  A    between atoms: _161  and  _162
REMARK   65  A    between atoms: _165  and  _167
REMARK   66  A    between atoms: _167  and  _168
REMARK   67  A    between atoms: _167  and  _170
REMARK   68  A    between atoms: _170  and  _171
REMARK   69  A    between atoms: _174  and  _176
REMARK   70  A    between atoms: _176  and  _177
REMARK   71  A    between atoms: _176  and  _179
REMARK   72  A    between atoms: _179  and  _180
REMARK   73  A    between atoms: _183  and  _185
REMARK   74  A    between atoms: _185  and  _186
REMARK   75  A    between atoms: _185  and  _188
REMARK   76  A    between atoms: _188  and  _189
REMARK   77  A    between atoms: _192  and  _194
REMARK   78  A    between atoms: _194  and  _195
REMARK   79  A    between atoms: _194  and  _197
REMARK   80  A    between atoms: _197  and  _198
REMARK   81  A    between atoms: _198  and  _199
REMARK   82  A    between atoms: _199  and  _200
REMARK   83  A    between atoms: _209  and  _211
REMARK   84  A    between atoms: _211  and  _212
REMARK   85  A    between atoms: _211  and  _214
REMARK   86  A    between atoms: _214  and  _215
REMARK   87  A    between atoms: _221  and  _223
REMARK   88  A    between atoms: _223  and  _224
REMARK   89  A    between atoms: _223  and  _226
REMARK   90  A    between atoms: _226  and  _227
REMARK   91  A    between atoms: _230  and  _232
REMARK   92  A    between atoms: _232  and  _233
REMARK   93  A    between atoms: _235  and  _237
REMARK   94  A    between atoms: _237  and  _238
REMARK   95  A    between atoms: _237  and  _240
REMARK   96  A    between atoms: _240  and  _241
REMARK   97  A    between atoms: _244  and  _246
REMARK   98  A    between atoms: _246  and  _247
REMARK   99  A    between atoms: _246  and  _249
REMARK  100  A    between atoms: _249  and  _250
REMARK  101  A    between atoms: _252  and  _254
REMARK  102  A    between atoms: _254  and  _255
REMARK  103  A    between atoms: _254  and  _257
REMARK  104  A    between atoms: _257  and  _258
REMARK  105  A    between atoms: _261  and  _263
REMARK  106  A    between atoms: _263  and  _264
REMARK  107  A    between atoms: _267  and  _269
REMARK  108  A    between atoms: _269  and  _270
REMARK  109  A    between atoms: _269  and  _272
REMARK  110  A    between atoms: _275  and  _277
REMARK  111  A    between atoms: _277  and  _278
REMARK  112  A    between atoms: _277  and  _280
REMARK  113  A    between atoms: _280  and  _281
REMARK  114  A    between atoms: _281  and  _282
REMARK  115  A    between atoms: _282  and  _283
REMARK  116  A    between atoms: _292  and  _294
REMARK  117  A    between atoms: _294  and  _295
REMARK  118  A    between atoms: _294  and  _297
REMARK  119  A    between atoms: _297  and  _298
REMARK  120  A    between atoms: _301  and  _303
REMARK  121  A    between atoms: _303  and  _304
REMARK  122  A    between atoms: _306  and  _308
REMARK  123  A    between atoms: _308  and  _309
REMARK  124  A    between atoms: _308  and  _311
REMARK  125  A    between atoms: _311  and  _312
REMARK  126  A    between atoms: _314  and  _316
REMARK  127  A    between atoms: _316  and  _317
REMARK  128  A    between atoms: _316  and  _319
REMARK  129  A    between atoms: _319  and  _320
REMARK  130  A    between atoms: _323  and  _325
REMARK  131  A    between atoms: _325  and  _326
REMARK  132  A    between atoms: _325  and  _328
REMARK  133  A    between atoms: _328  and  _329
REMARK  134  A    between atoms: _329  and  _330
REMARK  135  A    between atoms: _332  and  _334
REMARK  136  A    between atoms: _334  and  _335
REMARK  137  A    between atoms: _334  and  _337
REMARK  138  A    between atoms: _337  and  _338
REMARK  139  A    between atoms: _341  and  _343
REMARK  140  A    between atoms: _343  and  _344
REMARK  141  A    between atoms: _343  and  _346
REMARK  142  A    between atoms: _346  and  _347
REMARK  143  A    between atoms: _353  and  _355
REMARK  144  A    between atoms: _355  and  _356
REMARK  145  A    between atoms: _355  and  _358
REMARK  146  A    between atoms: _358  and  _359
REMARK  147  A    between atoms: _365  and  _367
REMARK  148  A    between atoms: _367  and  _368
REMARK  149  A    between atoms: _367  and  _370
REMARK  150  A    between atoms: _373  and  _375
REMARK  151  A    between atoms: _375  and  _376
REMARK  152  A    between atoms: _375  and  _378
REMARK  153  A    between atoms: _378  and  _379
REMARK  154  A    between atoms: _379  and  _380
REMARK  155  A    between atoms: _380  and  _381
REMARK  156  A    between atoms: _390  and  _392
REMARK  157  A    between atoms: _392  and  _393
REMARK  158  A    between atoms: _392  and  _395
REMARK  159  A    between atoms: _395  and  _396
REMARK  160  A    between atoms: _401  and  _403
REMARK  161  A    between atoms: _403  and  _404
REMARK  162  A    between atoms: _403  and  _406
REMARK  163  A    between atoms: _406  and  _407
REMARK  164  A    between atoms: _409  and  _411
REMARK  165  A    between atoms: _411  and  _412
REMARK  166  A    between atoms: _411  and  _414
REMARK  167  A    between atoms: _414  and  _415
REMARK  168  A    between atoms: _418  and  _420
REMARK  169  A    between atoms: _420  and  _421
REMARK  170  A    between atoms: _423  and  _425
REMARK  171  A    between atoms: _425  and  _426
REMARK  172  A    between atoms: _425  and  _428
REMARK  173  A    between atoms: _428  and  _429
REMARK  174  A    between atoms: _432  and  _434
REMARK  175  A    between atoms: _434  and  _435
REMARK  176  A    between atoms: _434  and  _437
REMARK  177  A    between atoms: _437  and  _438
REMARK  178  A    between atoms: _441  and  _443
REMARK  179  A    between atoms: _443  and  _444
REMARK  180  A    between atoms: _443  and  _446
REMARK  181  A    between atoms: _446  and  _447
REMARK  182  A    between atoms: _450  and  _452
REMARK  183  A    between atoms: _452  and  _453
REMARK  184  A    between atoms: _452  and  _455
REMARK  185  A    between atoms: _455  and  _456
REMARK  186  A    between atoms: _456  and  _457
REMARK  187  A    between atoms: _459  and  _461
REMARK  188  A    between atoms: _461  and  _462
REMARK  189  A    between atoms: _461  and  _464
REMARK  190  A    between atoms: _464  and  _465
REMARK  191  A    between atoms: _465  and  _466
REMARK  192  A    between atoms: _469  and  _471
REMARK  193  A    between atoms: _471  and  _472
REMARK  194  A    between atoms: _471  and  _474
REMARK  195  A    between atoms: _474  and  _475
REMARK  196  A    between atoms: _477  and  _479
REMARK  197  A    between atoms: _479  and  _480
REMARK  198  A    between atoms: _479  and  _482
REMARK  199  A    between atoms: _482  and  _483
REMARK  200  A    between atoms: _486  and  _488
REMARK  201  A    between atoms: _488  and  _489
REMARK  202  A    between atoms: _488  and  _491
REMARK  203  A    between atoms: _491  and  _492
REMARK  204  A    between atoms: _494  and  _496
REMARK  205  A    between atoms: _496  and  _497
REMARK  206  A    between atoms: _496  and  _499
REMARK  207  A    between atoms: _499  and  _500
REMARK  208  A    between atoms: _503  and  _505
REMARK  209  A    between atoms: _505  and  _506
REMARK  210  A    between atoms: _505  and  _508
REMARK  211  A    between atoms: _508  and  _509
REMARK  212  A    between atoms: _514  and  _515
REMARK  213  A    between atoms: _517  and  _519
REMARK  214  A    between atoms: _519  and  _520
REMARK  215  A    between atoms: _519  and  _522
REMARK  216  A    between atoms: _525  and  _527
REMARK  217  A    between atoms: _527  and  _528
REMARK  218  A    between atoms: _527  and  _530
REMARK  219  A    between atoms: _530  and  _531
REMARK  220  A    between atoms: _531  and  _532
REMARK  221  A    between atoms: _532  and  _533
REMARK  222  A    between atoms: _533  and  _534
REMARK  223  A    between atoms: _538  and  _540
REMARK  224  A    between atoms: _540  and  _541
REMARK  225  A    between atoms: _543  and  _545
REMARK  226  A    between atoms: _545  and  _546
REMARK  227  A    between atoms: _545  and  _548
REMARK  228  A    between atoms: _548  and  _549
REMARK  229  A    between atoms: _554  and  _555
REMARK  230  A    between atoms: _557  and  _559
REMARK  231  A    between atoms: _559  and  _560
REMARK  232  A    between atoms: _562  and  _564
REMARK  233  A    between atoms: _564  and  _565
REMARK  234  A    between atoms: _564  and  _567
REMARK  235  A    between atoms: _567  and  _568
REMARK                            x       y       z     vdW  Elec       q    Type
REMARK                         _______ _______ _______ _____ _____    ______ ____
ROOT
ATOM      1  CA  THR A   4      -3.893  13.940  13.750  0.00  0.00    +0.176 C 
ENDROOT
BRANCH   1   3
ATOM      2  C   LEU A   3      -2.782  12.167  14.983  0.00  0.00    +0.241 C 
ATOM      3  N   THR A   4      -3.387  13.341  14.968  0.00  0.00    -0.295 N 
ATOM      4  H   THR A   4      -3.505  13.855  15.865  0.00  0.00    +0.150 HD
ATOM      5  O   LEU A   3      -2.485  11.555  13.956  0.00  0.00    -0.273 OA
BRANCH   2   6
ATOM      6  CA  LEU A   3      -2.498  11.588  16.364  0.00  0.00    +0.149 C 
BRANCH   6   9
ATOM      7  C   PRO A   2      -4.457  10.414  17.282  0.00  0.00    +0.241 C 
ATOM      8  O   PRO A   2      -4.953  11.428  17.781  0.00  0.00    -0.273 OA
ATOM      9  N   LEU A   3      -3.333  10.405  16.558  0.00  0.00    -0.297 N 
ATOM     10  H   LEU A   3      -3.039   9.513  16.111  0.00  0.00    +0.150 HD
BRANCH   7  16
ATOM     11  C   ALA A   1      -3.115   7.749  18.088  0.00  0.00    +0.241 C 
ATOM     12  N   PRO A   2      -4.289   8.276  18.470  0.00  0.00    -0.272 N 
ATOM     13  CD  PRO A   2      -4.982   8.139  19.766  0.00  0.00    +0.094 C 
ATOM     14  CG  PRO A   2      -6.171   9.059  19.622  0.00  0.00    +0.024 C 
ATOM     15  CB  PRO A   2      -6.473   9.083  18.163  0.00  0.00    +0.031 C 
ATOM     16  CA  PRO A   2      -5.087   9.029  17.499  0.00  0.00    +0.152 C 
ATOM     17  O   ALA A   1      -2.757   7.714  16.909  0.00  0.00    -0.273 OA
BRANCH  11  18
ATOM     18  CA  ALA A   1      -2.219   7.171  19.172  0.00  0.00    +0.145 C 
ATOM     19  CB  ALA A   1      -1.591   8.300  19.975  0.00  0.00    +0.028 C 
BRANCH  18  20
ATOM     20  N   ALA A   1      -1.181   6.441  18.460  0.00  0.00    -0.238 NA
ATOM     21  H   ALA A   1      -1.102   6.584  17.433  0.00  0.00    +0.142 HD
ENDBRANCH  18  20
ENDBRANCH  11  18
ENDBRANCH   7  16
ENDBRANCH   6   9
BRANCH   6  22
ATOM     22  CB  LEU A   3      -1.021  11.197  16.496  0.00  0.00    +0.029 C 
BRANCH  22  23
ATOM     23  CG  LEU A   3       0.018  12.324  16.474  0.00  0.00    +0.002 C 
ATOM     24  CD2 LEU A   3      -0.041  13.196  17.732  0.00  0.00    +0.000 C 
ATOM     25  CD1 LEU A   3       1.429  11.740  16.284  0.00  0.00    +0.000 C 
ENDBRANCH  22  23
ENDBRANCH   6  22
ENDBRANCH   2   6
ENDBRANCH   1   3
BRANCH   1  26
ATOM     26  C   THR A   4      -2.785  14.456  12.858  0.00  0.00    +0.243 C 
ATOM     27  O   THR A   4      -1.892  15.193  13.309  0.00  0.00    -0.273 OA
ATOM     28  N   ILE A   5      -2.849  14.055  11.592  0.00  0.00    -0.297 N 
ATOM     29  H   ILE A   5      -3.609  13.400  11.318  0.00  0.00    +0.150 HD
BRANCH  28  30
ATOM     30  CA  ILE A   5      -1.907  14.489  10.572  0.00  0.00    +0.149 C 
BRANCH  30  31
ATOM     31  C   ILE A   5      -2.256  15.904  10.129  0.00  0.00    +0.241 C 
ATOM     32  N   THR A   6      -1.346  16.839  10.397  0.00  0.00    -0.296 N 
ATOM     33  H   THR A   6      -0.463  16.561  10.870  0.00  0.00    +0.150 HD
ATOM     34  O   ILE A   5      -3.328  16.147   9.571  0.00  0.00    -0.273 OA
BRANCH  32  35
ATOM     35  CA  THR A   6      -1.548  18.238  10.049  0.00  0.00    +0.164 C 
BRANCH  35  36
ATOM     36  C   THR A   6      -0.308  18.786   9.351  0.00  0.00    +0.229 C 
ATOM     37  O   THR A   6       0.801  18.264   9.537  0.00  0.00    -0.286 OA
ENDBRANCH  35  36
BRANCH  35  38
ATOM     38  CB  THR A   6      -1.838  19.129  11.277  0.00  0.00    +0.136 C 
ATOM     39  CG2 THR A   6      -3.000  18.574  12.118  0.00  0.00    +0.034 C 
BRANCH  38  40
ATOM     40  OG1 THR A   6      -0.660  19.227  12.089  0.00  0.00    -0.382 OA
ATOM     41  HG1 THR A   6      -0.849  19.798  12.875  0.00  0.00    +0.210 HD
ENDBRANCH  38  40
ENDBRANCH  35  38
ENDBRANCH  32  35
ENDBRANCH  30  31
BRANCH  30  42
ATOM     42  CB  ILE A   5      -1.951  13.550   9.359  0.00  0.00    +0.027 C 
ATOM     43  CG2 ILE A   5      -1.037  14.085   8.252  0.00  0.00    +0.002 C 
BRANCH  42  44
ATOM     44  CG1 ILE A   5      -1.570  12.123   9.759  0.00  0.00    +0.002 C 
ATOM     45  CD1 ILE A   5      -1.975  11.095   8.725  0.00  0.00    +0.000 C 
ENDBRANCH  42  44
ENDBRANCH  30  42
ENDBRANCH  28  30
ENDBRANCH   1  26
BRANCH   1  46
ATOM     46  CB  THR A   4      -4.871  15.049  14.128  0.00  0.00    +0.137 C 
ATOM     47  CG2 THR A   4      -5.513  15.715  12.897  0.00  0.00    +0.034 C 
BRANCH  46  48
ATOM     48  OG1 THR A   4      -5.877  14.471  14.971  0.00  0.00    -0.382 OA
ATOM     49  HG1 THR A   4      -6.528  15.170  15.233  0.00  0.00    +0.210 HD
ENDBRANCH  46  48
ENDBRANCH   1  46
TORSDOF 19
REMARK  Name = ../refined-set-2016/3fv1/3fv1_pocket.pdb
REMARK  235 active torsions:
REMARK  status: ('A' for Active; 'I' for Inactive)
REMARK    1  A    between atoms: _1  and  _3
REMARK    2  A    between atoms: _3  and  _4
REMARK    3  A    between atoms: _3  and  _6
REMARK    4  A    between atoms: _6  and  _7
REMARK    5  A    between atoms: _10  and  _12
REMARK    6  A    between atoms: _12  and  _13
REMARK    7  A    between atoms: _12  and  _15
REMARK    8  A    between atoms: _15  and  _16
REMARK    9  A    between atoms: _19  and  _21
REMARK   10  A    between atoms: _21  and  _22
REMARK   11  A    between atoms: _21  and  _24
REMARK   12  A    between atoms: _24  and  _25
REMARK   13  A    between atoms: _25  and  _26
REMARK   14  A    between atoms: _29  and  _31
REMARK   15  A    between atoms: _31  and  _32
REMARK   16  A    between atoms: _31  and  _34
REMARK   17  A    between atoms: _34  and  _35
REMARK   18  A    between atoms: _35  and  _36
REMARK   19  A    between atoms: _40  and  _41
REMARK   20  A    between atoms: _46  and  _48
REMARK   21  A    between atoms: _48  and  _49
REMARK   22  A    between atoms: _48  and  _51
REMARK   23  A    between atoms: _51  and  _52
REMARK   24  A    between atoms: _57  and  _58
REMARK   25  A    between atoms: _60  and  _62
REMARK   26  A    between atoms: _62  and  _63
REMARK   27  A    between atoms: _62  and  _65
REMARK   28  A    between atoms: _67  and  _69
REMARK   29  A    between atoms: _69  and  _70
REMARK   30  A    between atoms: _69  and  _72
REMARK   31  A    between atoms: _72  and  _73
REMARK   32  A    between atoms: _73  and  _74
REMARK   33  A    between atoms: _74  and  _75
REMARK   34  A    between atoms: _75  and  _76
REMARK   35  A    between atoms: _80  and  _82
REMARK   36  A    between atoms: _82  and  _83
REMARK   37  A    between atoms: _82  and  _85
REMARK   38  A    between atoms: _85  and  _86
REMARK   39  A    between atoms: _91  and  _92
REMARK   40  A    between atoms: _94  and  _96
REMARK   41  A    between atoms: _96  and  _97
REMARK   42  A    between atoms: _99  and  _101
REMARK   43  A    between atoms: _101  and  _102
REMARK   44  A    between atoms: _105  and  _107
REMARK   45  A    between atoms: _107  and  _108
REMARK   46  A    between atoms: _107  and  _110
REMARK   47  A    between atoms: _110  and  _111
REMARK   48  A    between atoms: _121  and  _123
REMARK   49  A    between atoms: _123  and  _124
REMARK   50  A    between atoms: _126  and  _128
REMARK   51  A    between atoms: _128  and  _129
REMARK   52  A    between atoms: _128  and  _131
REMARK   53  A    between atoms: _131  and  _132
REMARK   54  A    between atoms: _132  and  _133
REMARK   55  A    between atoms: _135  and  _137
REMARK   56  A    between atoms: _137  and  _138
REMARK   57  A    between atoms: _137  and  _140
REMARK   58  A    between atoms: _143  and  _145
REMARK   59  A    between atoms: _145  and  _146
REMARK   60  A    between atoms: _150  and  _151
REMARK   61  A    between atoms: _156  and  _158
REMARK   62  A    between atoms: _158  and  _159
REMARK   63  A    between atoms: _158  and  _161
REMARK   64  A    between atoms: _161  and  _162
REMARK   65  A    between atoms: _165  and  _167
REMARK   66  A    between atoms: _167  and  _168
REMARK   67  A    between atoms: _167  and  _170
REMARK   68  A    between atoms: _170  and  _171
REMARK   69  A    between atoms: _174  and  _176
REMARK   70  A    between atoms: _176  and  _177
REMARK   71  A    between atoms: _176  and  _179
REMARK   72  A    between atoms: _179  and  _180
REMARK   73  A    between atoms: _183  and  _185
REMARK   74  A    between atoms: _185  and  _186
REMARK   75  A    between atoms: _185  and  _188
REMARK   76  A    between atoms: _188  and  _189
REMARK   77  A    between atoms: _192  and  _194
REMARK   78  A    between atoms: _194  and  _195
REMARK   79  A    between atoms: _194  and  _197
REMARK   80  A    between atoms: _197  and  _198
REMARK   81  A    between atoms: _198  and  _199
REMARK   82  A    between atoms: _199  and  _200
REMARK   83  A    between atoms: _209  and  _211
REMARK   84  A    between atoms: _211  and  _212
REMARK   85  A    between atoms: _211  and  _214
REMARK   86  A    between atoms: _214  and  _215
REMARK   87  A    between atoms: _221  and  _223
REMARK   88  A    between atoms: _223  and  _224
REMARK   89  A    between atoms: _223  and  _226
REMARK   90  A    between atoms: _226  and  _227
REMARK   91  A    between atoms: _230  and  _232
REMARK   92  A    between atoms: _232  and  _233
REMARK   93  A    between atoms: _235  and  _237
REMARK   94  A    between atoms: _237  and  _238
REMARK   95  A    between atoms: _237  and  _240
REMARK   96  A    between atoms: _240  and  _241
REMARK   97  A    between atoms: _244  and  _246
REMARK   98  A    between atoms: _246  and  _247
REMARK   99  A    between atoms: _246  and  _249
REMARK  100  A    between atoms: _249  and  _250
REMARK  101  A    between atoms: _252  and  _254
REMARK  102  A    between atoms: _254  and  _255
REMARK  103  A    between atoms: _254  and  _257
REMARK  104  A    between atoms: _257  and  _258
REMARK  105  A    between atoms: _261  and  _263
REMARK  106  A    between atoms: _263  and  _264
REMARK  107  A    between atoms: _267  and  _269
REMARK  108  A    between atoms: _269  and  _270
REMARK  109  A    between atoms: _269  and  _272
REMARK  110  A    between atoms: _275  and  _277
REMARK  111  A    between atoms: _277  and  _278
REMARK  112  A    between atoms: _277  and  _280
REMARK  113  A    between atoms: _280  and  _281
REMARK  114  A    between atoms: _281  and  _282
REMARK  115  A    between atoms: _282  and  _283
REMARK  116  A    between atoms: _292  and  _294
REMARK  117  A    between atoms: _294  and  _295
REMARK  118  A    between atoms: _294  and  _297
REMARK  119  A    between atoms: _297  and  _298
REMARK  120  A    between atoms: _301  and  _303
REMARK  121  A    between atoms: _303  and  _304
REMARK  122  A    between atoms: _306  and  _308
REMARK  123  A    between atoms: _308  and  _309
REMARK  124  A    between atoms: _308  and  _311
REMARK  125  A    between atoms: _311  and  _312
REMARK  126  A    between atoms: _314  and  _316
REMARK  127  A    between atoms: _316  and  _317
REMARK  128  A    between atoms: _316  and  _319
REMARK  129  A    between atoms: _319  and  _320
REMARK  130  A    between atoms: _323  and  _325
REMARK  131  A    between atoms: _325  and  _326
REMARK  132  A    between atoms: _325  and  _328
REMARK  133  A    between atoms: _328  and  _329
REMARK  134  A    between atoms: _329  and  _330
REMARK  135  A    between atoms: _332  and  _334
REMARK  136  A    between atoms: _334  and  _335
REMARK  137  A    between atoms: _334  and  _337
REMARK  138  A    between atoms: _337  and  _338
REMARK  139  A    between atoms: _341  and  _343
REMARK  140  A    between atoms: _343  and  _344
REMARK  141  A    between atoms: _343  and  _346
REMARK  142  A    between atoms: _346  and  _347
REMARK  143  A    between atoms: _353  and  _355
REMARK  144  A    between atoms: _355  and  _356
REMARK  145  A    between atoms: _355  and  _358
REMARK  146  A    between atoms: _358  and  _359
REMARK  147  A    between atoms: _365  and  _367
REMARK  148  A    between atoms: _367  and  _368
REMARK  149  A    between atoms: _367  and  _370
REMARK  150  A    between atoms: _373  and  _375
REMARK  151  A    between atoms: _375  and  _376
REMARK  152  A    between atoms: _375  and  _378
REMARK  153  A    between atoms: _378  and  _379
REMARK  154  A    between atoms: _379  and  _380
REMARK  155  A    between atoms: _380  and  _381
REMARK  156  A    between atoms: _390  and  _392
REMARK  157  A    between atoms: _392  and  _393
REMARK  158  A    between atoms: _392  and  _395
REMARK  159  A    between atoms: _395  and  _396
REMARK  160  A    between atoms: _401  and  _403
REMARK  161  A    between atoms: _403  and  _404
REMARK  162  A    between atoms: _403  and  _406
REMARK  163  A    between atoms: _406  and  _407
REMARK  164  A    between atoms: _409  and  _411
REMARK  165  A    between atoms: _411  and  _412
REMARK  166  A    between atoms: _411  and  _414
REMARK  167  A    between atoms: _414  and  _415
REMARK  168  A    between atoms: _418  and  _420
REMARK  169  A    between atoms: _420  and  _421
REMARK  170  A    between atoms: _423  and  _425
REMARK  171  A    between atoms: _425  and  _426
REMARK  172  A    between atoms: _425  and  _428
REMARK  173  A    between atoms: _428  and  _429
REMARK  174  A    between atoms: _432  and  _434
REMARK  175  A    between atoms: _434  and  _435
REMARK  176  A    between atoms: _434  and  _437
REMARK  177  A    between atoms: _437  and  _438
REMARK  178  A    between atoms: _441  and  _443
REMARK  179  A    between atoms: _443  and  _444
REMARK  180  A    between atoms: _443  and  _446
REMARK  181  A    between atoms: _446  and  _447
REMARK  182  A    between atoms: _450  and  _452
REMARK  183  A    between atoms: _452  and  _453
REMARK  184  A    between atoms: _452  and  _455
REMARK  185  A    between atoms: _455  and  _456
REMARK  186  A    between atoms: _456  and  _457
REMARK  187  A    between atoms: _459  and  _461
REMARK  188  A    between atoms: _461  and  _462
REMARK  189  A    between atoms: _461  and  _464
REMARK  190  A    between atoms: _464  and  _465
REMARK  191  A    between atoms: _465  and  _466
REMARK  192  A    between atoms: _469  and  _471
REMARK  193  A    between atoms: _471  and  _472
REMARK  194  A    between atoms: _471  and  _474
REMARK  195  A    between atoms: _474  and  _475
REMARK  196  A    between atoms: _477  and  _479
REMARK  197  A    between atoms: _479  and  _480
REMARK  198  A    between atoms: _479  and  _482
REMARK  199  A    between atoms: _482  and  _483
REMARK  200  A    between atoms: _486  and  _488
REMARK  201  A    between atoms: _488  and  _489
REMARK  202  A    between atoms: _488  and  _491
REMARK  203  A    between atoms: _491  and  _492
REMARK  204  A    between atoms: _494  and  _496
REMARK  205  A    between atoms: _496  and  _497
REMARK  206  A    between atoms: _496  and  _499
REMARK  207  A    between atoms: _499  and  _500
REMARK  208  A    between atoms: _503  and  _505
REMARK  209  A    between atoms: _505  and  _506
REMARK  210  A    between atoms: _505  and  _508
REMARK  211  A    between atoms: _508  and  _509
REMARK  212  A    between atoms: _514  and  _515
REMARK  213  A    between atoms: _517  and  _519
REMARK  214  A    between atoms: _519  and  _520
REMARK  215  A    between atoms: _519  and  _522
REMARK  216  A    between atoms: _525  and  _527
REMARK  217  A    between atoms: _527  and  _528
REMARK  218  A    between atoms: _527  and  _530
REMARK  219  A    between atoms: _530  and  _531
REMARK  220  A    between atoms: _531  and  _532
REMARK  221  A    between atoms: _532  and  _533
REMARK  222  A    between atoms: _533  and  _534
REMARK  223  A    between atoms: _538  and  _540
REMARK  224  A    between atoms: _540  and  _541
REMARK  225  A    between atoms: _543  and  _545
REMARK  226  A    between atoms: _545  and  _546
REMARK  227  A    between atoms: _545  and  _548
REMARK  228  A    between atoms: _548  and  _549
REMARK  229  A    between atoms: _554  and  _555
REMARK  230  A    between atoms: _557  and  _559
REMARK  231  A    between atoms: _559  and  _560
REMARK  232  A    between atoms: _562  and  _564
REMARK  233  A    between atoms: _564  and  _565
REMARK  234  A    between atoms: _564  and  _567
REMARK  235  A    between atoms: _567  and  _568
REMARK                            x       y       z     vdW  Elec       q    Type
REMARK                         _______ _______ _______ _____ _____    ______ ____
ROOT
ATOM      1  NE  ARG A   1       0.024  17.673  16.143  0.00  0.00    -0.265 N 
ATOM      2  CZ  ARG A   1      -0.972  17.031  16.755  0.00  0.00    +0.342 C 
ATOM      3  NH2 ARG A   1      -1.285  17.343  18.004  0.00  0.00    -0.292 N 
ATOM      4 HH21 ARG A   1      -0.755  18.086  18.503  0.00  0.00    +0.255 HD
ATOM      5 HH22 ARG A   1      -2.061  16.845  18.486  0.00  0.00    +0.255 HD
ATOM      6  NH1 ARG A   1      -1.639  16.053  16.136  0.00  0.00    -0.292 N 
ATOM      7 HH11 ARG A   1      -2.414  15.561  16.626  0.00  0.00    +0.255 HD
ATOM      8 HH12 ARG A   1      -1.384  15.784  15.164  0.00  0.00    +0.255 HD
ATOM      9  HE  ARG A   1       0.510  18.430  16.666  0.00  0.00    +0.259 HD
ENDROOT
BRANCH   1  10
ATOM     10  CD  ARG A   1       0.476  17.380  14.784  0.00  0.00    +0.174 C 
BRANCH  10  11
ATOM     11  CG  ARG A   1       1.592  18.317  14.354  0.00  0.00    +0.045 C 
BRANCH  11  12
ATOM     12  CB  ARG A   1       2.225  17.777  13.101  0.00  0.00    +0.029 C 
BRANCH  12  13
ATOM     13  CA  ARG A   1       3.180  18.767  12.441  0.00  0.00    +0.133 C 
BRANCH  13  14
ATOM     14  N   ARG A   1       2.455  19.891  11.868  0.00  0.00    -0.239 NA
ATOM     15  H   ARG A   1       1.433  19.812  11.690  0.00  0.00    +0.142 HD
ENDBRANCH  13  14
BRANCH  13  16
ATOM     16  C   ARG A   1       4.038  18.030  11.426  0.00  0.00    +0.224 C 
ATOM     17  O   ARG A   1       5.122  17.569  11.760  0.00  0.00    -0.287 OA
ENDBRANCH  13  16
ENDBRANCH  12  13
ENDBRANCH  11  12
ENDBRANCH  10  11
ENDBRANCH   1  10
TORSDOF 6
REMARK  Name = ../refined-set-2016/3fv1/3fv1_pocket.pdb
REMARK  235 active torsions:
REMARK  status: ('A' for Active; 'I' for Inactive)
REMARK    1  A    between atoms: _1  and  _3
REMARK    2  A    between atoms: _3  and  _4
REMARK    3  A    between atoms: _3  and  _6
REMARK    4  A    between atoms: _6  and  _7
REMARK    5  A    between atoms: _10  and  _12
REMARK    6  A    between atoms: _12  and  _13
REMARK    7  A    between atoms: _12  and  _15
REMARK    8  A    between atoms: _15  and  _16
REMARK    9  A    between atoms: _19  and  _21
REMARK   10  A    between atoms: _21  and  _22
REMARK   11  A    between atoms: _21  and  _24
REMARK   12  A    between atoms: _24  and  _25
REMARK   13  A    between atoms: _25  and  _26
REMARK   14  A    between atoms: _29  and  _31
REMARK   15  A    between atoms: _31  and  _32
REMARK   16  A    between atoms: _31  and  _34
REMARK   17  A    between atoms: _34  and  _35
REMARK   18  A    between atoms: _35  and  _36
REMARK   19  A    between atoms: _40  and  _41
REMARK   20  A    between atoms: _46  and  _48
REMARK   21  A    between atoms: _48  and  _49
REMARK   22  A    between atoms: _48  and  _51
REMARK   23  A    between atoms: _51  and  _52
REMARK   24  A    between atoms: _57  and  _58
REMARK   25  A    between atoms: _60  and  _62
REMARK   26  A    between atoms: _62  and  _63
REMARK   27  A    between atoms: _62  and  _65
REMARK   28  A    between atoms: _67  and  _69
REMARK   29  A    between atoms: _69  and  _70
REMARK   30  A    between atoms: _69  and  _72
REMARK   31  A    between atoms: _72  and  _73
REMARK   32  A    between atoms: _73  and  _74
REMARK   33  A    between atoms: _74  and  _75
REMARK   34  A    between atoms: _75  and  _76
REMARK   35  A    between atoms: _80  and  _82
REMARK   36  A    between atoms: _82  and  _83
REMARK   37  A    between atoms: _82  and  _85
REMARK   38  A    between atoms: _85  and  _86
REMARK   39  A    between atoms: _91  and  _92
REMARK   40  A    between atoms: _94  and  _96
REMARK   41  A    between atoms: _96  and  _97
REMARK   42  A    between atoms: _99  and  _101
REMARK   43  A    between atoms: _101  and  _102
REMARK   44  A    between atoms: _105  and  _107
REMARK   45  A    between atoms: _107  and  _108
REMARK   46  A    between atoms: _107  and  _110
REMARK   47  A    between atoms: _110  and  _111
REMARK   48  A    between atoms: _121  and  _123
REMARK   49  A    between atoms: _123  and  _124
REMARK   50  A    between atoms: _126  and  _128
REMARK   51  A    between atoms: _128  and  _129
REMARK   52  A    between atoms: _128  and  _131
REMARK   53  A    between atoms: _131  and  _132
REMARK   54  A    between atoms: _132  and  _133
REMARK   55  A    between atoms: _135  and  _137
REMARK   56  A    between atoms: _137  and  _138
REMARK   57  A    between atoms: _137  and  _140
REMARK   58  A    between atoms: _143  and  _145
REMARK   59  A    between atoms: _145  and  _146
REMARK   60  A    between atoms: _150  and  _151
REMARK   61  A    between atoms: _156  and  _158
REMARK   62  A    between atoms: _158  and  _159
REMARK   63  A    between atoms: _158  and  _161
REMARK   64  A    between atoms: _161  and  _162
REMARK   65  A    between atoms: _165  and  _167
REMARK   66  A    between atoms: _167  and  _168
REMARK   67  A    between atoms: _167  and  _170
REMARK   68  A    between atoms: _170  and  _171
REMARK   69  A    between atoms: _174  and  _176
REMARK   70  A    between atoms: _176  and  _177
REMARK   71  A    between atoms: _176  and  _179
REMARK   72  A    between atoms: _179  and  _180
REMARK   73  A    between atoms: _183  and  _185
REMARK   74  A    between atoms: _185  and  _186
REMARK   75  A    between atoms: _185  and  _188
REMARK   76  A    between atoms: _188  and  _189
REMARK   77  A    between atoms: _192  and  _194
REMARK   78  A    between atoms: _194  and  _195
REMARK   79  A    between atoms: _194  and  _197
REMARK   80  A    between atoms: _197  and  _198
REMARK   81  A    between atoms: _198  and  _199
REMARK   82  A    between atoms: _199  and  _200
REMARK   83  A    between atoms: _209  and  _211
REMARK   84  A    between atoms: _211  and  _212
REMARK   85  A    between atoms: _211  and  _214
REMARK   86  A    between atoms: _214  and  _215
REMARK   87  A    between atoms: _221  and  _223
REMARK   88  A    between atoms: _223  and  _224
REMARK   89  A    between atoms: _223  and  _226
REMARK   90  A    between atoms: _226  and  _227
REMARK   91  A    between atoms: _230  and  _232
REMARK   92  A    between atoms: _232  and  _233
REMARK   93  A    between atoms: _235  and  _237
REMARK   94  A    between atoms: _237  and  _238
REMARK   95  A    between atoms: _237  and  _240
REMARK   96  A    between atoms: _240  and  _241
REMARK   97  A    between atoms: _244  and  _246
REMARK   98  A    between atoms: _246  and  _247
REMARK   99  A    between atoms: _246  and  _249
REMARK  100  A    between atoms: _249  and  _250
REMARK  101  A    between atoms: _252  and  _254
REMARK  102  A    between atoms: _254  and  _255
REMARK  103  A    between atoms: _254  and  _257
REMARK  104  A    between atoms: _257  and  _258
REMARK  105  A    between atoms: _261  and  _263
REMARK  106  A    between atoms: _263  and  _264
REMARK  107  A    between atoms: _267  and  _269
REMARK  108  A    between atoms: _269  and  _270
REMARK  109  A    between atoms: _269  and  _272
REMARK  110  A    between atoms: _275  and  _277
REMARK  111  A    between atoms: _277  and  _278
REMARK  112  A    between atoms: _277  and  _280
REMARK  113  A    between atoms: _280  and  _281
REMARK  114  A    between atoms: _281  and  _282
REMARK  115  A    between atoms: _282  and  _283
REMARK  116  A    between atoms: _292  and  _294
REMARK  117  A    between atoms: _294  and  _295
REMARK  118  A    between atoms: _294  and  _297
REMARK  119  A    between atoms: _297  and  _298
REMARK  120  A    between atoms: _301  and  _303
REMARK  121  A    between atoms: _303  and  _304
REMARK  122  A    between atoms: _306  and  _308
REMARK  123  A    between atoms: _308  and  _309
REMARK  124  A    between atoms: _308  and  _311
REMARK  125  A    between atoms: _311  and  _312
REMARK  126  A    between atoms: _314  and  _316
REMARK  127  A    between atoms: _316  and  _317
REMARK  128  A    between atoms: _316  and  _319
REMARK  129  A    between atoms: _319  and  _320
REMARK  130  A    between atoms: _323  and  _325
REMARK  131  A    between atoms: _325  and  _326
REMARK  132  A    between atoms: _325  and  _328
REMARK  133  A    between atoms: _328  and  _329
REMARK  134  A    between atoms: _329  and  _330
REMARK  135  A    between atoms: _332  and  _334
REMARK  136  A    between atoms: _334  and  _335
REMARK  137  A    between atoms: _334  and  _337
REMARK  138  A    between atoms: _337  and  _338
REMARK  139  A    between atoms: _341  and  _343
REMARK  140  A    between atoms: _343  and  _344
REMARK  141  A    between atoms: _343  and  _346
REMARK  142  A    between atoms: _346  and  _347
REMARK  143  A    between atoms: _353  and  _355
REMARK  144  A    between atoms: _355  and  _356
REMARK  145  A    between atoms: _355  and  _358
REMARK  146  A    between atoms: _358  and  _359
REMARK  147  A    between atoms: _365  and  _367
REMARK  148  A    between atoms: _367  and  _368
REMARK  149  A    between atoms: _367  and  _370
REMARK  150  A    between atoms: _373  and  _375
REMARK  151  A    between atoms: _375  and  _376
REMARK  152  A    between atoms: _375  and  _378
REMARK  153  A    between atoms: _378  and  _379
REMARK  154  A    between atoms: _379  and  _380
REMARK  155  A    between atoms: _380  and  _381
REMARK  156  A    between atoms: _390  and  _392
REMARK  157  A    between atoms: _392  and  _393
REMARK  158  A    between atoms: _392  and  _395
REMARK  159  A    between atoms: _395  and  _396
REMARK  160  A    between atoms: _401  and  _403
REMARK  161  A    between atoms: _403  and  _404
REMARK  162  A    between atoms: _403  and  _406
REMARK  163  A    between atoms: _406  and  _407
REMARK  164  A    between atoms: _409  and  _411
REMARK  165  A    between atoms: _411  and  _412
REMARK  166  A    between atoms: _411  and  _414
REMARK  167  A    between atoms: _414  and  _415
REMARK  168  A    between atoms: _418  and  _420
REMARK  169  A    between atoms: _420  and  _421
REMARK  170  A    between atoms: _423  and  _425
REMARK  171  A    between atoms: _425  and  _426
REMARK  172  A    between atoms: _425  and  _428
REMARK  173  A    between atoms: _428  and  _429
REMARK  174  A    between atoms: _432  and  _434
REMARK  175  A    between atoms: _434  and  _435
REMARK  176  A    between atoms: _434  and  _437
REMARK  177  A    between atoms: _437  and  _438
REMARK  178  A    between atoms: _441  and  _443
REMARK  179  A    between atoms: _443  and  _444
REMARK  180  A    between atoms: _443  and  _446
REMARK  181  A    between atoms: _446  and  _447
REMARK  182  A    between atoms: _450  and  _452
REMARK  183  A    between atoms: _452  and  _453
REMARK  184  A    between atoms: _452  and  _455
REMARK  185  A    between atoms: _455  and  _456
REMARK  186  A    between atoms: _456  and  _457
REMARK  187  A    between atoms: _459  and  _461
REMARK  188  A    between atoms: _461  and  _462
REMARK  189  A    between atoms: _461  and  _464
REMARK  190  A    between atoms: _464  and  _465
REMARK  191  A    between atoms: _465  and  _466
REMARK  192  A    between atoms: _469  and  _471
REMARK  193  A    between atoms: _471  and  _472
REMARK  194  A    between atoms: _471  and  _474
REMARK  195  A    between atoms: _474  and  _475
REMARK  196  A    between atoms: _477  and  _479
REMARK  197  A    between atoms: _479  and  _480
REMARK  198  A    between atoms: _479  and  _482
REMARK  199  A    between atoms: _482  and  _483
REMARK  200  A    between atoms: _486  and  _488
REMARK  201  A    between atoms: _488  and  _489
REMARK  202  A    between atoms: _488  and  _491
REMARK  203  A    between atoms: _491  and  _492
REMARK  204  A    between atoms: _494  and  _496
REMARK  205  A    between atoms: _496  and  _497
REMARK  206  A    between atoms: _496  and  _499
REMARK  207  A    between atoms: _499  and  _500
REMARK  208  A    between atoms: _503  and  _505
REMARK  209  A    between atoms: _505  and  _506
REMARK  210  A    between atoms: _505  and  _508
REMARK  211  A    between atoms: _508  and  _509
REMARK  212  A    between atoms: _514  and  _515
REMARK  213  A    between atoms: _517  and  _519
REMARK  214  A    between atoms: _519  and  _520
REMARK  215  A    between atoms: _519  and  _522
REMARK  216  A    between atoms: _525  and  _527
REMARK  217  A    between atoms: _527  and  _528
REMARK  218  A    between atoms: _527  and  _530
REMARK  219  A    between atoms: _530  and  _531
REMARK  220  A    between atoms: _531  and  _532
REMARK  221  A    between atoms: _532  and  _533
REMARK  222  A    between atoms: _533  and  _534
REMARK  223  A    between atoms: _538  and  _540
REMARK  224  A    between atoms: _540  and  _541
REMARK  225  A    between atoms: _543  and  _545
REMARK  226  A    between atoms: _545  and  _546
REMARK  227  A    between atoms: _545  and  _548
REMARK  228  A    between atoms: _548  and  _549
REMARK  229  A    between atoms: _554  and  _555
REMARK  230  A    between atoms: _557  and  _559
REMARK  231  A    between atoms: _559  and  _560
REMARK  232  A    between atoms: _562  and  _564
REMARK  233  A    between atoms: _564  and  _565
REMARK  234  A    between atoms: _564  and  _567
REMARK  235  A    between atoms: _567  and  _568
REMARK                            x       y       z     vdW  Elec       q    Type
REMARK                         _______ _______ _______ _____ _____    ______ ____
ROOT
ATOM      1  CB  PHE A   1       2.646  11.561   9.509  0.00  0.00    +0.051 C 
ENDROOT
BRANCH   1   2
ATOM      2  CG  PHE A   1       2.171  12.351  10.672  0.00  0.00    -0.020 A 
ATOM      3  CD2 PHE A   1       1.500  11.720  11.738  0.00  0.00    -0.004 A 
ATOM      4  CE2 PHE A   1       0.982  12.476  12.794  0.00  0.00    -0.000 A 
ATOM      5  CZ  PHE A   1       1.117  13.853  12.763  0.00  0.00    -0.000 A 
ATOM      6  CE1 PHE A   1       1.748  14.492  11.705  0.00  0.00    -0.000 A 
ATOM      7  CD1 PHE A   1       2.265  13.745  10.651  0.00  0.00    -0.004 A 
ENDBRANCH   1   2
BRANCH   1   8
ATOM      8  CA  PHE A   1       3.908  10.754   9.745  0.00  0.00    +0.137 C 
BRANCH   8   9
ATOM      9  N   PHE A   1       5.095  11.580   9.542  0.00  0.00    -0.239 NA
ATOM     10  H   PHE A   1       5.031  12.448   8.972  0.00  0.00    +0.142 HD
ENDBRANCH   8   9
BRANCH   8  11
ATOM     11  C   PHE A   1       3.814   9.594   8.764  0.00  0.00    +0.224 C 
ATOM     12  O   PHE A   1       4.153   9.741   7.581  0.00  0.00    -0.287 OA
ENDBRANCH   8  11
ENDBRANCH   1   8
TORSDOF 4
REMARK  Name = ../refined-set-2016/3fv1/3fv1_pocket.pdb
REMARK  235 active torsions:
REMARK  status: ('A' for Active; 'I' for Inactive)
REMARK    1  A    between atoms: _1  and  _3
REMARK    2  A    between atoms: _3  and  _4
REMARK    3  A    between atoms: _3  and  _6
REMARK    4  A    between atoms: _6  and  _7
REMARK    5  A    between atoms: _10  and  _12
REMARK    6  A    between atoms: _12  and  _13
REMARK    7  A    between atoms: _12  and  _15
REMARK    8  A    between atoms: _15  and  _16
REMARK    9  A    between atoms: _19  and  _21
REMARK   10  A    between atoms: _21  and  _22
REMARK   11  A    between atoms: _21  and  _24
REMARK   12  A    between atoms: _24  and  _25
REMARK   13  A    between atoms: _25  and  _26
REMARK   14  A    between atoms: _29  and  _31
REMARK   15  A    between atoms: _31  and  _32
REMARK   16  A    between atoms: _31  and  _34
REMARK   17  A    between atoms: _34  and  _35
REMARK   18  A    between atoms: _35  and  _36
REMARK   19  A    between atoms: _40  and  _41
REMARK   20  A    between atoms: _46  and  _48
REMARK   21  A    between atoms: _48  and  _49
REMARK   22  A    between atoms: _48  and  _51
REMARK   23  A    between atoms: _51  and  _52
REMARK   24  A    between atoms: _57  and  _58
REMARK   25  A    between atoms: _60  and  _62
REMARK   26  A    between atoms: _62  and  _63
REMARK   27  A    between atoms: _62  and  _65
REMARK   28  A    between atoms: _67  and  _69
REMARK   29  A    between atoms: _69  and  _70
REMARK   30  A    between atoms: _69  and  _72
REMARK   31  A    between atoms: _72  and  _73
REMARK   32  A    between atoms: _73  and  _74
REMARK   33  A    between atoms: _74  and  _75
REMARK   34  A    between atoms: _75  and  _76
REMARK   35  A    between atoms: _80  and  _82
REMARK   36  A    between atoms: _82  and  _83
REMARK   37  A    between atoms: _82  and  _85
REMARK   38  A    between atoms: _85  and  _86
REMARK   39  A    between atoms: _91  and  _92
REMARK   40  A    between atoms: _94  and  _96
REMARK   41  A    between atoms: _96  and  _97
REMARK   42  A    between atoms: _99  and  _101
REMARK   43  A    between atoms: _101  and  _102
REMARK   44  A    between atoms: _105  and  _107
REMARK   45  A    between atoms: _107  and  _108
REMARK   46  A    between atoms: _107  and  _110
REMARK   47  A    between atoms: _110  and  _111
REMARK   48  A    between atoms: _121  and  _123
REMARK   49  A    between atoms: _123  and  _124
REMARK   50  A    between atoms: _126  and  _128
REMARK   51  A    between atoms: _128  and  _129
REMARK   52  A    between atoms: _128  and  _131
REMARK   53  A    between atoms: _131  and  _132
REMARK   54  A    between atoms: _132  and  _133
REMARK   55  A    between atoms: _135  and  _137
REMARK   56  A    between atoms: _137  and  _138
REMARK   57  A    between atoms: _137  and  _140
REMARK   58  A    between atoms: _143  and  _145
REMARK   59  A    between atoms: _145  and  _146
REMARK   60  A    between atoms: _150  and  _151
REMARK   61  A    between atoms: _156  and  _158
REMARK   62  A    between atoms: _158  and  _159
REMARK   63  A    between atoms: _158  and  _161
REMARK   64  A    between atoms: _161  and  _162
REMARK   65  A    between atoms: _165  and  _167
REMARK   66  A    between atoms: _167  and  _168
REMARK   67  A    between atoms: _167  and  _170
REMARK   68  A    between atoms: _170  and  _171
REMARK   69  A    between atoms: _174  and  _176
REMARK   70  A    between atoms: _176  and  _177
REMARK   71  A    between atoms: _176  and  _179
REMARK   72  A    between atoms: _179  and  _180
REMARK   73  A    between atoms: _183  and  _185
REMARK   74  A    between atoms: _185  and  _186
REMARK   75  A    between atoms: _185  and  _188
REMARK   76  A    between atoms: _188  and  _189
REMARK   77  A    between atoms: _192  and  _194
REMARK   78  A    between atoms: _194  and  _195
REMARK   79  A    between atoms: _194  and  _197
REMARK   80  A    between atoms: _197  and  _198
REMARK   81  A    between atoms: _198  and  _199
REMARK   82  A    between atoms: _199  and  _200
REMARK   83  A    between atoms: _209  and  _211
REMARK   84  A    between atoms: _211  and  _212
REMARK   85  A    between atoms: _211  and  _214
REMARK   86  A    between atoms: _214  and  _215
REMARK   87  A    between atoms: _221  and  _223
REMARK   88  A    between atoms: _223  and  _224
REMARK   89  A    between atoms: _223  and  _226
REMARK   90  A    between atoms: _226  and  _227
REMARK   91  A    between atoms: _230  and  _232
REMARK   92  A    between atoms: _232  and  _233
REMARK   93  A    between atoms: _235  and  _237
REMARK   94  A    between atoms: _237  and  _238
REMARK   95  A    between atoms: _237  and  _240
REMARK   96  A    between atoms: _240  and  _241
REMARK   97  A    between atoms: _244  and  _246
REMARK   98  A    between atoms: _246  and  _247
REMARK   99  A    between atoms: _246  and  _249
REMARK  100  A    between atoms: _249  and  _250
REMARK  101  A    between atoms: _252  and  _254
REMARK  102  A    between atoms: _254  and  _255
REMARK  103  A    between atoms: _254  and  _257
REMARK  104  A    between atoms: _257  and  _258
REMARK  105  A    between atoms: _261  and  _263
REMARK  106  A    between atoms: _263  and  _264
REMARK  107  A    between atoms: _267  and  _269
REMARK  108  A    between atoms: _269  and  _270
REMARK  109  A    between atoms: _269  and  _272
REMARK  110  A    between atoms: _275  and  _277
REMARK  111  A    between atoms: _277  and  _278
REMARK  112  A    between atoms: _277  and  _280
REMARK  113  A    between atoms: _280  and  _281
REMARK  114  A    between atoms: _281  and  _282
REMARK  115  A    between atoms: _282  and  _283
REMARK  116  A    between atoms: _292  and  _294
REMARK  117  A    between atoms: _294  and  _295
REMARK  118  A    between atoms: _294  and  _297
REMARK  119  A    between atoms: _297  and  _298
REMARK  120  A    between atoms: _301  and  _303
REMARK  121  A    between atoms: _303  and  _304
REMARK  122  A    between atoms: _306  and  _308
REMARK  123  A    between atoms: _308  and  _309
REMARK  124  A    between atoms: _308  and  _311
REMARK  125  A    between atoms: _311  and  _312
REMARK  126  A    between atoms: _314  and  _316
REMARK  127  A    between atoms: _316  and  _317
REMARK  128  A    between atoms: _316  and  _319
REMARK  129  A    between atoms: _319  and  _320
REMARK  130  A    between atoms: _323  and  _325
REMARK  131  A    between atoms: _325  and  _326
REMARK  132  A    between atoms: _325  and  _328
REMARK  133  A    between atoms: _328  and  _329
REMARK  134  A    between atoms: _329  and  _330
REMARK  135  A    between atoms: _332  and  _334
REMARK  136  A    between atoms: _334  and  _335
REMARK  137  A    between atoms: _334  and  _337
REMARK  138  A    between atoms: _337  and  _338
REMARK  139  A    between atoms: _341  and  _343
REMARK  140  A    between atoms: _343  and  _344
REMARK  141  A    between atoms: _343  and  _346
REMARK  142  A    between atoms: _346  and  _347
REMARK  143  A    between atoms: _353  and  _355
REMARK  144  A    between atoms: _355  and  _356
REMARK  145  A    between atoms: _355  and  _358
REMARK  146  A    between atoms: _358  and  _359
REMARK  147  A    between atoms: _365  and  _367
REMARK  148  A    between atoms: _367  and  _368
REMARK  149  A    between atoms: _367  and  _370
REMARK  150  A    between atoms: _373  and  _375
REMARK  151  A    between atoms: _375  and  _376
REMARK  152  A    between atoms: _375  and  _378
REMARK  153  A    between atoms: _378  and  _379
REMARK  154  A    between atoms: _379  and  _380
REMARK  155  A    between atoms: _380  and  _381
REMARK  156  A    between atoms: _390  and  _392
REMARK  157  A    between atoms: _392  and  _393
REMARK  158  A    between atoms: _392  and  _395
REMARK  159  A    between atoms: _395  and  _396
REMARK  160  A    between atoms: _401  and  _403
REMARK  161  A    between atoms: _403  and  _404
REMARK  162  A    between atoms: _403  and  _406
REMARK  163  A    between atoms: _406  and  _407
REMARK  164  A    between atoms: _409  and  _411
REMARK  165  A    between atoms: _411  and  _412
REMARK  166  A    between atoms: _411  and  _414
REMARK  167  A    between atoms: _414  and  _415
REMARK  168  A    between atoms: _418  and  _420
REMARK  169  A    between atoms: _420  and  _421
REMARK  170  A    between atoms: _423  and  _425
REMARK  171  A    between atoms: _425  and  _426
REMARK  172  A    between atoms: _425  and  _428
REMARK  173  A    between atoms: _428  and  _429
REMARK  174  A    between atoms: _432  and  _434
REMARK  175  A    between atoms: _434  and  _435
REMARK  176  A    between atoms: _434  and  _437
REMARK  177  A    between atoms: _437  and  _438
REMARK  178  A    between atoms: _441  and  _443
REMARK  179  A    between atoms: _443  and  _444
REMARK  180  A    between atoms: _443  and  _446
REMARK  181  A    between atoms: _446  and  _447
REMARK  182  A    between atoms: _450  and  _452
REMARK  183  A    between atoms: _452  and  _453
REMARK  184  A    between atoms: _452  and  _455
REMARK  185  A    between atoms: _455  and  _456
REMARK  186  A    between atoms: _456  and  _457
REMARK  187  A    between atoms: _459  and  _461
REMARK  188  A    between atoms: _461  and  _462
REMARK  189  A    between atoms: _461  and  _464
REMARK  190  A    between atoms: _464  and  _465
REMARK  191  A    between atoms: _465  and  _466
REMARK  192  A    between atoms: _469  and  _471
REMARK  193  A    between atoms: _471  and  _472
REMARK  194  A    between atoms: _471  and  _474
REMARK  195  A    between atoms: _474  and  _475
REMARK  196  A    between atoms: _477  and  _479
REMARK  197  A    between atoms: _479  and  _480
REMARK  198  A    between atoms: _479  and  _482
REMARK  199  A    between atoms: _482  and  _483
REMARK  200  A    between atoms: _486  and  _488
REMARK  201  A    between atoms: _488  and  _489
REMARK  202  A    between atoms: _488  and  _491
REMARK  203  A    between atoms: _491  and  _492
REMARK  204  A    between atoms: _494  and  _496
REMARK  205  A    between atoms: _496  and  _497
REMARK  206  A    between atoms: _496  and  _499
REMARK  207  A    between atoms: _499  and  _500
REMARK  208  A    between atoms: _503  and  _505
REMARK  209  A    between atoms: _505  and  _506
REMARK  210  A    between atoms: _505  and  _508
REMARK  211  A    between atoms: _508  and  _509
REMARK  212  A    between atoms: _514  and  _515
REMARK  213  A    between atoms: _517  and  _519
REMARK  214  A    between atoms: _519  and  _520
REMARK  215  A    between atoms: _519  and  _522
REMARK  216  A    between atoms: _525  and  _527
REMARK  217  A    between atoms: _527  and  _528
REMARK  218  A    between atoms: _527  and  _530
REMARK  219  A    between atoms: _530  and  _531
REMARK  220  A    between atoms: _531  and  _532
REMARK  221  A    between atoms: _532  and  _533
REMARK  222  A    between atoms: _533  and  _534
REMARK  223  A    between atoms: _538  and  _540
REMARK  224  A    between atoms: _540  and  _541
REMARK  225  A    between atoms: _543  and  _545
REMARK  226  A    between atoms: _545  and  _546
REMARK  227  A    between atoms: _545  and  _548
REMARK  228  A    between atoms: _548  and  _549
REMARK  229  A    between atoms: _554  and  _555
REMARK  230  A    between atoms: _557  and  _559
REMARK  231  A    between atoms: _559  and  _560
REMARK  232  A    between atoms: _562  and  _564
REMARK  233  A    between atoms: _564  and  _565
REMARK  234  A    between atoms: _564  and  _567
REMARK  235  A    between atoms: _567  and  _568
REMARK                            x       y       z     vdW  Elec       q    Type
REMARK                         _______ _______ _______ _____ _____    ______ ____
ROOT
ATOM      1  C   GLY A   2     -13.623  16.254  12.507  0.00  0.00    +0.243 C 
ATOM      2  O   GLY A   2     -14.247  15.554  13.302  0.00  0.00    -0.273 OA
ATOM      3  N   ILE A   3     -13.293  17.517  12.753  0.00  0.00    -0.297 N 
ATOM      4  H   ILE A   3     -12.690  18.028  12.077  0.00  0.00    +0.150 HD
ENDROOT
BRANCH   1   5
ATOM      5  CA  GLY A   2     -13.167  15.691  11.182  0.00  0.00    +0.176 C 
BRANCH   5   7
ATOM      6  C   LEU A   1     -12.177  13.540  10.648  0.00  0.00    +0.238 C 
ATOM      7  N   GLY A   2     -13.083  14.247  11.307  0.00  0.00    -0.296 N 
ATOM      8  H   GLY A   2     -13.753  13.754  11.931  0.00  0.00    +0.150 HD
ATOM      9  O   LEU A   1     -11.488  13.998   9.738  0.00  0.00    -0.274 OA
BRANCH   6  10
ATOM     10  CA  LEU A   1     -12.020  12.108  11.098  0.00  0.00    +0.145 C 
BRANCH  10  11
ATOM     11  N   LEU A   1     -11.204  11.383  10.126  0.00  0.00    -0.238 NA
ATOM     12  H   LEU A   1     -10.639  11.923   9.440  0.00  0.00    +0.142 HD
ENDBRANCH  10  11
BRANCH  10  13
ATOM     13  CB  LEU A   1     -11.380  12.060  12.499  0.00  0.00    +0.026 C 
BRANCH  13  14
ATOM     14  CG  LEU A   1     -10.079  12.784  12.921  0.00  0.00    +0.002 C 
ATOM     15  CD2 LEU A   1     -10.155  14.297  12.960  0.00  0.00    +0.000 C 
ATOM     16  CD1 LEU A   1      -8.881  12.288  12.095  0.00  0.00    +0.000 C 
ENDBRANCH  13  14
ENDBRANCH  10  13
ENDBRANCH   6  10
ENDBRANCH   5   7
ENDBRANCH   1   5
BRANCH   3  17
ATOM     17  CA  ILE A   3     -13.762  18.203  13.957  0.00  0.00    +0.149 C 
BRANCH  17  18
ATOM     18  C   ILE A   3     -15.275  18.412  13.880  0.00  0.00    +0.241 C 
ATOM     19  N   SER A   4     -15.960  18.175  14.990  0.00  0.00    -0.296 N 
ATOM     20  H   SER A   4     -15.495  17.704  15.792  0.00  0.00    +0.150 HD
ATOM     21  O   ILE A   3     -15.813  18.786  12.833  0.00  0.00    -0.273 OA
BRANCH  19  22
ATOM     22  CA  SER A   4     -17.364  18.570  15.097  0.00  0.00    +0.166 C 
BRANCH  22  23
ATOM     23  CB  SER A   4     -17.622  19.053  16.520  0.00  0.00    +0.229 C 
ATOM     24  OG  SER A   4     -16.673  19.364  17.241  0.00  0.00    -0.286 OA
ENDBRANCH  22  23
BRANCH  22  25
ATOM     25  C   SER A   4     -18.292  17.429  14.656  0.00  0.00    +0.165 C 
BRANCH  25  26
ATOM     26  O   SER A   4     -19.643  17.844  14.570  0.00  0.00    -0.380 OA
ATOM     27  H   SER A   4     -19.720  18.578  13.910  0.00  0.00    +0.211 HD
ENDBRANCH  25  26
ENDBRANCH  22  25
ENDBRANCH  19  22
ENDBRANCH  17  18
BRANCH  17  28
ATOM     28  CB  ILE A   3     -13.067  19.566  14.117  0.00  0.00    +0.027 C 
ATOM     29  CG2 ILE A   3     -13.729  20.426  15.220  0.00  0.00    +0.002 C 
BRANCH  28  30
ATOM     30  CG1 ILE A   3     -11.568  19.375  14.393  0.00  0.00    +0.002 C 
ATOM     31  CD1 ILE A   3     -10.796  20.683  14.211  0.00  0.00    +0.000 C 
ENDBRANCH  28  30
ENDBRANCH  17  28
ENDBRANCH   3  17
TORSDOF 14
REMARK  Name = ../refined-set-2016/3fv1/3fv1_pocket.pdb
REMARK  235 active torsions:
REMARK  status: ('A' for Active; 'I' for Inactive)
REMARK    1  A    between atoms: _1  and  _3
REMARK    2  A    between atoms: _3  and  _4
REMARK    3  A    between atoms: _3  and  _6
REMARK    4  A    between atoms: _6  and  _7
REMARK    5  A    between atoms: _10  and  _12
REMARK    6  A    between atoms: _12  and  _13
REMARK    7  A    between atoms: _12  and  _15
REMARK    8  A    between atoms: _15  and  _16
REMARK    9  A    between atoms: _19  and  _21
REMARK   10  A    between atoms: _21  and  _22
REMARK   11  A    between atoms: _21  and  _24
REMARK   12  A    between atoms: _24  and  _25
REMARK   13  A    between atoms: _25  and  _26
REMARK   14  A    between atoms: _29  and  _31
REMARK   15  A    between atoms: _31  and  _32
REMARK   16  A    between atoms: _31  and  _34
REMARK   17  A    between atoms: _34  and  _35
REMARK   18  A    between atoms: _35  and  _36
REMARK   19  A    between atoms: _40  and  _41
REMARK   20  A    between atoms: _46  and  _48
REMARK   21  A    between atoms: _48  and  _49
REMARK   22  A    between atoms: _48  and  _51
REMARK   23  A    between atoms: _51  and  _52
REMARK   24  A    between atoms: _57  and  _58
REMARK   25  A    between atoms: _60  and  _62
REMARK   26  A    between atoms: _62  and  _63
REMARK   27  A    between atoms: _62  and  _65
REMARK   28  A    between atoms: _67  and  _69
REMARK   29  A    between atoms: _69  and  _70
REMARK   30  A    between atoms: _69  and  _72
REMARK   31  A    between atoms: _72  and  _73
REMARK   32  A    between atoms: _73  and  _74
REMARK   33  A    between atoms: _74  and  _75
REMARK   34  A    between atoms: _75  and  _76
REMARK   35  A    between atoms: _80  and  _82
REMARK   36  A    between atoms: _82  and  _83
REMARK   37  A    between atoms: _82  and  _85
REMARK   38  A    between atoms: _85  and  _86
REMARK   39  A    between atoms: _91  and  _92
REMARK   40  A    between atoms: _94  and  _96
REMARK   41  A    between atoms: _96  and  _97
REMARK   42  A    between atoms: _99  and  _101
REMARK   43  A    between atoms: _101  and  _102
REMARK   44  A    between atoms: _105  and  _107
REMARK   45  A    between atoms: _107  and  _108
REMARK   46  A    between atoms: _107  and  _110
REMARK   47  A    between atoms: _110  and  _111
REMARK   48  A    between atoms: _121  and  _123
REMARK   49  A    between atoms: _123  and  _124
REMARK   50  A    between atoms: _126  and  _128
REMARK   51  A    between atoms: _128  and  _129
REMARK   52  A    between atoms: _128  and  _131
REMARK   53  A    between atoms: _131  and  _132
REMARK   54  A    between atoms: _132  and  _133
REMARK   55  A    between atoms: _135  and  _137
REMARK   56  A    between atoms: _137  and  _138
REMARK   57  A    between atoms: _137  and  _140
REMARK   58  A    between atoms: _143  and  _145
REMARK   59  A    between atoms: _145  and  _146
REMARK   60  A    between atoms: _150  and  _151
REMARK   61  A    between atoms: _156  and  _158
REMARK   62  A    between atoms: _158  and  _159
REMARK   63  A    between atoms: _158  and  _161
REMARK   64  A    between atoms: _161  and  _162
REMARK   65  A    between atoms: _165  and  _167
REMARK   66  A    between atoms: _167  and  _168
REMARK   67  A    between atoms: _167  and  _170
REMARK   68  A    between atoms: _170  and  _171
REMARK   69  A    between atoms: _174  and  _176
REMARK   70  A    between atoms: _176  and  _177
REMARK   71  A    between atoms: _176  and  _179
REMARK   72  A    between atoms: _179  and  _180
REMARK   73  A    between atoms: _183  and  _185
REMARK   74  A    between atoms: _185  and  _186
REMARK   75  A    between atoms: _185  and  _188
REMARK   76  A    between atoms: _188  and  _189
REMARK   77  A    between atoms: _192  and  _194
REMARK   78  A    between atoms: _194  and  _195
REMARK   79  A    between atoms: _194  and  _197
REMARK   80  A    between atoms: _197  and  _198
REMARK   81  A    between atoms: _198  and  _199
REMARK   82  A    between atoms: _199  and  _200
REMARK   83  A    between atoms: _209  and  _211
REMARK   84  A    between atoms: _211  and  _212
REMARK   85  A    between atoms: _211  and  _214
REMARK   86  A    between atoms: _214  and  _215
REMARK   87  A    between atoms: _221  and  _223
REMARK   88  A    between atoms: _223  and  _224
REMARK   89  A    between atoms: _223  and  _226
REMARK   90  A    between atoms: _226  and  _227
REMARK   91  A    between atoms: _230  and  _232
REMARK   92  A    between atoms: _232  and  _233
REMARK   93  A    between atoms: _235  and  _237
REMARK   94  A    between atoms: _237  and  _238
REMARK   95  A    between atoms: _237  and  _240
REMARK   96  A    between atoms: _240  and  _241
REMARK   97  A    between atoms: _244  and  _246
REMARK   98  A    between atoms: _246  and  _247
REMARK   99  A    between atoms: _246  and  _249
REMARK  100  A    between atoms: _249  and  _250
REMARK  101  A    between atoms: _252  and  _254
REMARK  102  A    between atoms: _254  and  _255
REMARK  103  A    between atoms: _254  and  _257
REMARK  104  A    between atoms: _257  and  _258
REMARK  105  A    between atoms: _261  and  _263
REMARK  106  A    between atoms: _263  and  _264
REMARK  107  A    between atoms: _267  and  _269
REMARK  108  A    between atoms: _269  and  _270
REMARK  109  A    between atoms: _269  and  _272
REMARK  110  A    between atoms: _275  and  _277
REMARK  111  A    between atoms: _277  and  _278
REMARK  112  A    between atoms: _277  and  _280
REMARK  113  A    between atoms: _280  and  _281
REMARK  114  A    between atoms: _281  and  _282
REMARK  115  A    between atoms: _282  and  _283
REMARK  116  A    between atoms: _292  and  _294
REMARK  117  A    between atoms: _294  and  _295
REMARK  118  A    between atoms: _294  and  _297
REMARK  119  A    between atoms: _297  and  _298
REMARK  120  A    between atoms: _301  and  _303
REMARK  121  A    between atoms: _303  and  _304
REMARK  122  A    between atoms: _306  and  _308
REMARK  123  A    between atoms: _308  and  _309
REMARK  124  A    between atoms: _308  and  _311
REMARK  125  A    between atoms: _311  and  _312
REMARK  126  A    between atoms: _314  and  _316
REMARK  127  A    between atoms: _316  and  _317
REMARK  128  A    between atoms: _316  and  _319
REMARK  129  A    between atoms: _319  and  _320
REMARK  130  A    between atoms: _323  and  _325
REMARK  131  A    between atoms: _325  and  _326
REMARK  132  A    between atoms: _325  and  _328
REMARK  133  A    between atoms: _328  and  _329
REMARK  134  A    between atoms: _329  and  _330
REMARK  135  A    between atoms: _332  and  _334
REMARK  136  A    between atoms: _334  and  _335
REMARK  137  A    between atoms: _334  and  _337
REMARK  138  A    between atoms: _337  and  _338
REMARK  139  A    between atoms: _341  and  _343
REMARK  140  A    between atoms: _343  and  _344
REMARK  141  A    between atoms: _343  and  _346
REMARK  142  A    between atoms: _346  and  _347
REMARK  143  A    between atoms: _353  and  _355
REMARK  144  A    between atoms: _355  and  _356
REMARK  145  A    between atoms: _355  and  _358
REMARK  146  A    between atoms: _358  and  _359
REMARK  147  A    between atoms: _365  and  _367
REMARK  148  A    between atoms: _367  and  _368
REMARK  149  A    between atoms: _367  and  _370
REMARK  150  A    between atoms: _373  and  _375
REMARK  151  A    between atoms: _375  and  _376
REMARK  152  A    between atoms: _375  and  _378
REMARK  153  A    between atoms: _378  and  _379
REMARK  154  A    between atoms: _379  and  _380
REMARK  155  A    between atoms: _380  and  _381
REMARK  156  A    between atoms: _390  and  _392
REMARK  157  A    between atoms: _392  and  _393
REMARK  158  A    between atoms: _392  and  _395
REMARK  159  A    between atoms: _395  and  _396
REMARK  160  A    between atoms: _401  and  _403
REMARK  161  A    between atoms: _403  and  _404
REMARK  162  A    between atoms: _403  and  _406
REMARK  163  A    between atoms: _406  and  _407
REMARK  164  A    between atoms: _409  and  _411
REMARK  165  A    between atoms: _411  and  _412
REMARK  166  A    between atoms: _411  and  _414
REMARK  167  A    between atoms: _414  and  _415
REMARK  168  A    between atoms: _418  and  _420
REMARK  169  A    between atoms: _420  and  _421
REMARK  170  A    between atoms: _423  and  _425
REMARK  171  A    between atoms: _425  and  _426
REMARK  172  A    between atoms: _425  and  _428
REMARK  173  A    between atoms: _428  and  _429
REMARK  174  A    between atoms: _432  and  _434
REMARK  175  A    between atoms: _434  and  _435
REMARK  176  A    between atoms: _434  and  _437
REMARK  177  A    between atoms: _437  and  _438
REMARK  178  A    between atoms: _441  and  _443
REMARK  179  A    between atoms: _443  and  _444
REMARK  180  A    between atoms: _443  and  _446
REMARK  181  A    between atoms: _446  and  _447
REMARK  182  A    between atoms: _450  and  _452
REMARK  183  A    between atoms: _452  and  _453
REMARK  184  A    between atoms: _452  and  _455
REMARK  185  A    between atoms: _455  and  _456
REMARK  186  A    between atoms: _456  and  _457
REMARK  187  A    between atoms: _459  and  _461
REMARK  188  A    between atoms: _461  and  _462
REMARK  189  A    between atoms: _461  and  _464
REMARK  190  A    between atoms: _464  and  _465
REMARK  191  A    between atoms: _465  and  _466
REMARK  192  A    between atoms: _469  and  _471
REMARK  193  A    between atoms: _471  and  _472
REMARK  194  A    between atoms: _471  and  _474
REMARK  195  A    between atoms: _474  and  _475
REMARK  196  A    between atoms: _477  and  _479
REMARK  197  A    between atoms: _479  and  _480
REMARK  198  A    between atoms: _479  and  _482
REMARK  199  A    between atoms: _482  and  _483
REMARK  200  A    between atoms: _486  and  _488
REMARK  201  A    between atoms: _488  and  _489
REMARK  202  A    between atoms: _488  and  _491
REMARK  203  A    between atoms: _491  and  _492
REMARK  204  A    between atoms: _494  and  _496
REMARK  205  A    between atoms: _496  and  _497
REMARK  206  A    between atoms: _496  and  _499
REMARK  207  A    between atoms: _499  and  _500
REMARK  208  A    between atoms: _503  and  _505
REMARK  209  A    between atoms: _505  and  _506
REMARK  210  A    between atoms: _505  and  _508
REMARK  211  A    between atoms: _508  and  _509
REMARK  212  A    between atoms: _514  and  _515
REMARK  213  A    between atoms: _517  and  _519
REMARK  214  A    between atoms: _519  and  _520
REMARK  215  A    between atoms: _519  and  _522
REMARK  216  A    between atoms: _525  and  _527
REMARK  217  A    between atoms: _527  and  _528
REMARK  218  A    between atoms: _527  and  _530
REMARK  219  A    between atoms: _530  and  _531
REMARK  220  A    between atoms: _531  and  _532
REMARK  221  A    between atoms: _532  and  _533
REMARK  222  A    between atoms: _533  and  _534
REMARK  223  A    between atoms: _538  and  _540
REMARK  224  A    between atoms: _540  and  _541
REMARK  225  A    between atoms: _543  and  _545
REMARK  226  A    between atoms: _545  and  _546
REMARK  227  A    between atoms: _545  and  _548
REMARK  228  A    between atoms: _548  and  _549
REMARK  229  A    between atoms: _554  and  _555
REMARK  230  A    between atoms: _557  and  _559
REMARK  231  A    between atoms: _559  and  _560
REMARK  232  A    between atoms: _562  and  _564
REMARK  233  A    between atoms: _564  and  _565
REMARK  234  A    between atoms: _564  and  _567
REMARK  235  A    between atoms: _567  and  _568
REMARK                            x       y       z     vdW  Elec       q    Type
REMARK                         _______ _______ _______ _____ _____    ______ ____
ROOT
ATOM      1  CA  LEU A   1     -20.301  17.629  21.262  0.00  0.00    +0.133 C 
ENDROOT
BRANCH   1   2
ATOM      2  N   LEU A   1     -19.601  18.481  20.297  0.00  0.00    -0.239 NA
ATOM      3  H   LEU A   1     -18.746  18.983  20.610  0.00  0.00    +0.142 HD
ENDBRANCH   1   2
BRANCH   1   4
ATOM      4  C   LEU A   1     -21.055  18.509  22.244  0.00  0.00    +0.224 C 
ATOM      5  O   LEU A   1     -20.471  19.400  22.865  0.00  0.00    -0.287 OA
ENDBRANCH   1   4
BRANCH   1   6
ATOM      6  CB  LEU A   1     -19.301  16.768  22.048  0.00  0.00    +0.025 C 
BRANCH   6   7
ATOM      7  CG  LEU A   1     -19.894  15.763  23.046  0.00  0.00    +0.002 C 
ATOM      8  CD2 LEU A   1     -18.865  15.338  24.107  0.00  0.00    +0.000 C 
ATOM      9  CD1 LEU A   1     -20.430  14.580  22.278  0.00  0.00    +0.000 C 
ENDBRANCH   6   7
ENDBRANCH   1   6
TORSDOF 4
REMARK  Name = ../refined-set-2016/3fv1/3fv1_pocket.pdb
REMARK  235 active torsions:
REMARK  status: ('A' for Active; 'I' for Inactive)
REMARK    1  A    between atoms: _1  and  _3
REMARK    2  A    between atoms: _3  and  _4
REMARK    3  A    between atoms: _3  and  _6
REMARK    4  A    between atoms: _6  and  _7
REMARK    5  A    between atoms: _10  and  _12
REMARK    6  A    between atoms: _12  and  _13
REMARK    7  A    between atoms: _12  and  _15
REMARK    8  A    between atoms: _15  and  _16
REMARK    9  A    between atoms: _19  and  _21
REMARK   10  A    between atoms: _21  and  _22
REMARK   11  A    between atoms: _21  and  _24
REMARK   12  A    between atoms: _24  and  _25
REMARK   13  A    between atoms: _25  and  _26
REMARK   14  A    between atoms: _29  and  _31
REMARK   15  A    between atoms: _31  and  _32
REMARK   16  A    between atoms: _31  and  _34
REMARK   17  A    between atoms: _34  and  _35
REMARK   18  A    between atoms: _35  and  _36
REMARK   19  A    between atoms: _40  and  _41
REMARK   20  A    between atoms: _46  and  _48
REMARK   21  A    between atoms: _48  and  _49
REMARK   22  A    between atoms: _48  and  _51
REMARK   23  A    between atoms: _51  and  _52
REMARK   24  A    between atoms: _57  and  _58
REMARK   25  A    between atoms: _60  and  _62
REMARK   26  A    between atoms: _62  and  _63
REMARK   27  A    between atoms: _62  and  _65
REMARK   28  A    between atoms: _67  and  _69
REMARK   29  A    between atoms: _69  and  _70
REMARK   30  A    between atoms: _69  and  _72
REMARK   31  A    between atoms: _72  and  _73
REMARK   32  A    between atoms: _73  and  _74
REMARK   33  A    between atoms: _74  and  _75
REMARK   34  A    between atoms: _75  and  _76
REMARK   35  A    between atoms: _80  and  _82
REMARK   36  A    between atoms: _82  and  _83
REMARK   37  A    between atoms: _82  and  _85
REMARK   38  A    between atoms: _85  and  _86
REMARK   39  A    between atoms: _91  and  _92
REMARK   40  A    between atoms: _94  and  _96
REMARK   41  A    between atoms: _96  and  _97
REMARK   42  A    between atoms: _99  and  _101
REMARK   43  A    between atoms: _101  and  _102
REMARK   44  A    between atoms: _105  and  _107
REMARK   45  A    between atoms: _107  and  _108
REMARK   46  A    between atoms: _107  and  _110
REMARK   47  A    between atoms: _110  and  _111
REMARK   48  A    between atoms: _121  and  _123
REMARK   49  A    between atoms: _123  and  _124
REMARK   50  A    between atoms: _126  and  _128
REMARK   51  A    between atoms: _128  and  _129
REMARK   52  A    between atoms: _128  and  _131
REMARK   53  A    between atoms: _131  and  _132
REMARK   54  A    between atoms: _132  and  _133
REMARK   55  A    between atoms: _135  and  _137
REMARK   56  A    between atoms: _137  and  _138
REMARK   57  A    between atoms: _137  and  _140
REMARK   58  A    between atoms: _143  and  _145
REMARK   59  A    between atoms: _145  and  _146
REMARK   60  A    between atoms: _150  and  _151
REMARK   61  A    between atoms: _156  and  _158
REMARK   62  A    between atoms: _158  and  _159
REMARK   63  A    between atoms: _158  and  _161
REMARK   64  A    between atoms: _161  and  _162
REMARK   65  A    between atoms: _165  and  _167
REMARK   66  A    between atoms: _167  and  _168
REMARK   67  A    between atoms: _167  and  _170
REMARK   68  A    between atoms: _170  and  _171
REMARK   69  A    between atoms: _174  and  _176
REMARK   70  A    between atoms: _176  and  _177
REMARK   71  A    between atoms: _176  and  _179
REMARK   72  A    between atoms: _179  and  _180
REMARK   73  A    between atoms: _183  and  _185
REMARK   74  A    between atoms: _185  and  _186
REMARK   75  A    between atoms: _185  and  _188
REMARK   76  A    between atoms: _188  and  _189
REMARK   77  A    between atoms: _192  and  _194
REMARK   78  A    between atoms: _194  and  _195
REMARK   79  A    between atoms: _194  and  _197
REMARK   80  A    between atoms: _197  and  _198
REMARK   81  A    between atoms: _198  and  _199
REMARK   82  A    between atoms: _199  and  _200
REMARK   83  A    between atoms: _209  and  _211
REMARK   84  A    between atoms: _211  and  _212
REMARK   85  A    between atoms: _211  and  _214
REMARK   86  A    between atoms: _214  and  _215
REMARK   87  A    between atoms: _221  and  _223
REMARK   88  A    between atoms: _223  and  _224
REMARK   89  A    between atoms: _223  and  _226
REMARK   90  A    between atoms: _226  and  _227
REMARK   91  A    between atoms: _230  and  _232
REMARK   92  A    between atoms: _232  and  _233
REMARK   93  A    between atoms: _235  and  _237
REMARK   94  A    between atoms: _237  and  _238
REMARK   95  A    between atoms: _237  and  _240
REMARK   96  A    between atoms: _240  and  _241
REMARK   97  A    between atoms: _244  and  _246
REMARK   98  A    between atoms: _246  and  _247
REMARK   99  A    between atoms: _246  and  _249
REMARK  100  A    between atoms: _249  and  _250
REMARK  101  A    between atoms: _252  and  _254
REMARK  102  A    between atoms: _254  and  _255
REMARK  103  A    between atoms: _254  and  _257
REMARK  104  A    between atoms: _257  and  _258
REMARK  105  A    between atoms: _261  and  _263
REMARK  106  A    between atoms: _263  and  _264
REMARK  107  A    between atoms: _267  and  _269
REMARK  108  A    between atoms: _269  and  _270
REMARK  109  A    between atoms: _269  and  _272
REMARK  110  A    between atoms: _275  and  _277
REMARK  111  A    between atoms: _277  and  _278
REMARK  112  A    between atoms: _277  and  _280
REMARK  113  A    between atoms: _280  and  _281
REMARK  114  A    between atoms: _281  and  _282
REMARK  115  A    between atoms: _282  and  _283
REMARK  116  A    between atoms: _292  and  _294
REMARK  117  A    between atoms: _294  and  _295
REMARK  118  A    between atoms: _294  and  _297
REMARK  119  A    between atoms: _297  and  _298
REMARK  120  A    between atoms: _301  and  _303
REMARK  121  A    between atoms: _303  and  _304
REMARK  122  A    between atoms: _306  and  _308
REMARK  123  A    between atoms: _308  and  _309
REMARK  124  A    between atoms: _308  and  _311
REMARK  125  A    between atoms: _311  and  _312
REMARK  126  A    between atoms: _314  and  _316
REMARK  127  A    between atoms: _316  and  _317
REMARK  128  A    between atoms: _316  and  _319
REMARK  129  A    between atoms: _319  and  _320
REMARK  130  A    between atoms: _323  and  _325
REMARK  131  A    between atoms: _325  and  _326
REMARK  132  A    between atoms: _325  and  _328
REMARK  133  A    between atoms: _328  and  _329
REMARK  134  A    between atoms: _329  and  _330
REMARK  135  A    between atoms: _332  and  _334
REMARK  136  A    between atoms: _334  and  _335
REMARK  137  A    between atoms: _334  and  _337
REMARK  138  A    between atoms: _337  and  _338
REMARK  139  A    between atoms: _341  and  _343
REMARK  140  A    between atoms: _343  and  _344
REMARK  141  A    between atoms: _343  and  _346
REMARK  142  A    between atoms: _346  and  _347
REMARK  143  A    between atoms: _353  and  _355
REMARK  144  A    between atoms: _355  and  _356
REMARK  145  A    between atoms: _355  and  _358
REMARK  146  A    between atoms: _358  and  _359
REMARK  147  A    between atoms: _365  and  _367
REMARK  148  A    between atoms: _367  and  _368
REMARK  149  A    between atoms: _367  and  _370
REMARK  150  A    between atoms: _373  and  _375
REMARK  151  A    between atoms: _375  and  _376
REMARK  152  A    between atoms: _375  and  _378
REMARK  153  A    between atoms: _378  and  _379
REMARK  154  A    between atoms: _379  and  _380
REMARK  155  A    between atoms: _380  and  _381
REMARK  156  A    between atoms: _390  and  _392
REMARK  157  A    between atoms: _392  and  _393
REMARK  158  A    between atoms: _392  and  _395
REMARK  159  A    between atoms: _395  and  _396
REMARK  160  A    between atoms: _401  and  _403
REMARK  161  A    between atoms: _403  and  _404
REMARK  162  A    between atoms: _403  and  _406
REMARK  163  A    between atoms: _406  and  _407
REMARK  164  A    between atoms: _409  and  _411
REMARK  165  A    between atoms: _411  and  _412
REMARK  166  A    between atoms: _411  and  _414
REMARK  167  A    between atoms: _414  and  _415
REMARK  168  A    between atoms: _418  and  _420
REMARK  169  A    between atoms: _420  and  _421
REMARK  170  A    between atoms: _423  and  _425
REMARK  171  A    between atoms: _425  and  _426
REMARK  172  A    between atoms: _425  and  _428
REMARK  173  A    between atoms: _428  and  _429
REMARK  174  A    between atoms: _432  and  _434
REMARK  175  A    between atoms: _434  and  _435
REMARK  176  A    between atoms: _434  and  _437
REMARK  177  A    between atoms: _437  and  _438
REMARK  178  A    between atoms: _441  and  _443
REMARK  179  A    between atoms: _443  and  _444
REMARK  180  A    between atoms: _443  and  _446
REMARK  181  A    between atoms: _446  and  _447
REMARK  182  A    between atoms: _450  and  _452
REMARK  183  A    between atoms: _452  and  _453
REMARK  184  A    between atoms: _452  and  _455
REMARK  185  A    between atoms: _455  and  _456
REMARK  186  A    between atoms: _456  and  _457
REMARK  187  A    between atoms: _459  and  _461
REMARK  188  A    between atoms: _461  and  _462
REMARK  189  A    between atoms: _461  and  _464
REMARK  190  A    between atoms: _464  and  _465
REMARK  191  A    between atoms: _465  and  _466
REMARK  192  A    between atoms: _469  and  _471
REMARK  193  A    between atoms: _471  and  _472
REMARK  194  A    between atoms: _471  and  _474
REMARK  195  A    between atoms: _474  and  _475
REMARK  196  A    between atoms: _477  and  _479
REMARK  197  A    between atoms: _479  and  _480
REMARK  198  A    between atoms: _479  and  _482
REMARK  199  A    between atoms: _482  and  _483
REMARK  200  A    between atoms: _486  and  _488
REMARK  201  A    between atoms: _488  and  _489
REMARK  202  A    between atoms: _488  and  _491
REMARK  203  A    between atoms: _491  and  _492
REMARK  204  A    between atoms: _494  and  _496
REMARK  205  A    between atoms: _496  and  _497
REMARK  206  A    between atoms: _496  and  _499
REMARK  207  A    between atoms: _499  and  _500
REMARK  208  A    between atoms: _503  and  _505
REMARK  209  A    between atoms: _505  and  _506
REMARK  210  A    between atoms: _505  and  _508
REMARK  211  A    between atoms: _508  and  _509
REMARK  212  A    between atoms: _514  and  _515
REMARK  213  A    between atoms: _517  and  _519
REMARK  214  A    between atoms: _519  and  _520
REMARK  215  A    between atoms: _519  and  _522
REMARK  216  A    between atoms: _525  and  _527
REMARK  217  A    between atoms: _527  and  _528
REMARK  218  A    between atoms: _527  and  _530
REMARK  219  A    between atoms: _530  and  _531
REMARK  220  A    between atoms: _531  and  _532
REMARK  221  A    between atoms: _532  and  _533
REMARK  222  A    between atoms: _533  and  _534
REMARK  223  A    between atoms: _538  and  _540
REMARK  224  A    between atoms: _540  and  _541
REMARK  225  A    between atoms: _543  and  _545
REMARK  226  A    between atoms: _545  and  _546
REMARK  227  A    between atoms: _545  and  _548
REMARK  228  A    between atoms: _548  and  _549
REMARK  229  A    between atoms: _554  and  _555
REMARK  230  A    between atoms: _557  and  _559
REMARK  231  A    between atoms: _559  and  _560
REMARK  232  A    between atoms: _562  and  _564
REMARK  233  A    between atoms: _564  and  _565
REMARK  234  A    between atoms: _564  and  _567
REMARK  235  A    between atoms: _567  and  _568
REMARK                            x       y       z     vdW  Elec       q    Type
REMARK                         _______ _______ _______ _____ _____    ______ ____
ROOT
ATOM      1  C   SER A   6      -6.209  20.367  16.674  0.00  0.00    +0.243 C 
ATOM      2  N   THR A   7      -7.206  20.046  17.496  0.00  0.00    -0.295 N 
ATOM      3  H   THR A   7      -7.101  19.252  18.160  0.00  0.00    +0.150 HD
ATOM      4  O   SER A   6      -6.316  21.249  15.830  0.00  0.00    -0.273 OA
ENDROOT
BRANCH   1   5
ATOM      5  CA  SER A   6      -4.913  19.579  16.798  0.00  0.00    +0.178 C 
BRANCH   5   8
ATOM      6  C   GLY A   5      -4.405  19.900  19.160  0.00  0.00    +0.243 C 
ATOM      7  O   GLY A   5      -4.392  21.146  19.051  0.00  0.00    -0.273 OA
ATOM      8  N   SER A   6      -4.673  19.083  18.146  0.00  0.00    -0.295 N 
ATOM      9  H   SER A   6      -4.712  18.059  18.321  0.00  0.00    +0.150 HD
BRANCH   6  10
ATOM     10  CA  GLY A   5      -4.112  19.209  20.480  0.00  0.00    +0.176 C 
BRANCH  10  13
ATOM     11  C   ASP A   4      -2.721  20.273  22.187  0.00  0.00    +0.241 C 
ATOM     12  O   ASP A   4      -1.812  19.447  22.095  0.00  0.00    -0.273 OA
ATOM     13  N   GLY A   5      -3.884  20.165  21.549  0.00  0.00    -0.295 N 
ATOM     14  H   GLY A   5      -4.664  20.793  21.828  0.00  0.00    +0.150 HD
BRANCH  11  15
ATOM     15  CA  ASP A   4      -2.581  21.513  23.057  0.00  0.00    +0.160 C 
BRANCH  15  18
ATOM     16  C   ARG A   3      -4.473  21.293  24.623  0.00  0.00    +0.241 C 
ATOM     17  O   ARG A   3      -4.230  20.121  24.911  0.00  0.00    -0.273 OA
ATOM     18  N   ASP A   4      -3.826  21.975  23.681  0.00  0.00    -0.297 N 
ATOM     19  H   ASP A   4      -4.224  22.884  23.371  0.00  0.00    +0.150 HD
BRANCH  16  20
ATOM     20  CA  ARG A   3      -5.593  22.055  25.329  0.00  0.00    +0.149 C 
BRANCH  20  22
ATOM     21  C   VAL A   2      -7.493  20.829  24.450  0.00  0.00    +0.241 C 
ATOM     22  N   ARG A   3      -6.771  21.216  25.492  0.00  0.00    -0.297 N 
ATOM     23  H   ARG A   3      -7.052  20.914  26.446  0.00  0.00    +0.150 HD
ATOM     24  O   VAL A   2      -7.185  21.115  23.294  0.00  0.00    -0.273 OA
BRANCH  21  25
ATOM     25  CA  VAL A   2      -8.743  19.989  24.747  0.00  0.00    +0.148 C 
BRANCH  25  28
ATOM     26  C   ALA A   1     -10.369  21.684  24.180  0.00  0.00    +0.238 C 
ATOM     27  O   ALA A   1     -10.054  22.371  25.158  0.00  0.00    -0.274 OA
ATOM     28  N   VAL A   2      -9.856  20.475  23.953  0.00  0.00    -0.297 N 
ATOM     29  H   VAL A   2     -10.256  19.876  23.202  0.00  0.00    +0.150 HD
BRANCH  26  30
ATOM     30  CA  ALA A   1     -11.371  22.201  23.164  0.00  0.00    +0.145 C 
ATOM     31  CB  ALA A   1     -10.669  22.524  21.839  0.00  0.00    +0.028 C 
BRANCH  30  32
ATOM     32  N   ALA A   1     -12.009  23.397  23.708  0.00  0.00    -0.238 NA
ATOM     33  H   ALA A   1     -11.463  24.004  24.352  0.00  0.00    +0.142 HD
ENDBRANCH  30  32
ENDBRANCH  26  30
ENDBRANCH  25  28
BRANCH  25  34
ATOM     34  CB  VAL A   2      -8.479  18.498  24.476  0.00  0.00    +0.027 C 
ATOM     35  CG2 VAL A   2      -7.187  18.039  25.138  0.00  0.00    +0.002 C 
ATOM     36  CG1 VAL A   2      -9.660  17.654  24.979  0.00  0.00    +0.002 C 
ENDBRANCH  25  34
ENDBRANCH  21  25
ENDBRANCH  20  22
BRANCH  20  37
ATOM     37  CB  ARG A   3      -5.122  22.549  26.698  0.00  0.00    +0.033 C 
BRANCH  37  38
ATOM     38  CG  ARG A   3      -4.058  23.649  26.657  0.00  0.00    +0.045 C 
BRANCH  38  39
ATOM     39  CD  ARG A   3      -3.556  24.015  28.063  0.00  0.00    +0.174 C 
BRANCH  39  40
ATOM     40  NE  ARG A   3      -4.644  24.401  28.967  0.00  0.00    -0.265 N 
ATOM     41  HE  ARG A   3      -5.066  23.657  29.558  0.00  0.00    +0.259 HD
ATOM     42  CZ  ARG A   3      -5.131  25.635  29.087  0.00  0.00    +0.342 C 
ATOM     43  NH2 ARG A   3      -6.127  25.870  29.937  0.00  0.00    -0.292 N 
ATOM     44 HH21 ARG A   3      -6.521  25.092  30.504  0.00  0.00    +0.255 HD
ATOM     45 HH22 ARG A   3      -6.511  26.831  30.035  0.00  0.00    +0.255 HD
ATOM     46  NH1 ARG A   3      -4.625  26.637  28.376  0.00  0.00    -0.292 N 
ATOM     47 HH11 ARG A   3      -5.014  27.596  28.479  0.00  0.00    +0.255 HD
ATOM     48 HH12 ARG A   3      -3.840  26.462  27.717  0.00  0.00    +0.255 HD
ENDBRANCH  39  40
ENDBRANCH  38  39
ENDBRANCH  37  38
ENDBRANCH  20  37
ENDBRANCH  16  20
ENDBRANCH  15  18
BRANCH  15  49
ATOM     49  CB  ASP A   4      -1.463  21.386  24.097  0.00  0.00    +0.143 C 
BRANCH  49  50
ATOM     50  CG  ASP A   4      -1.030  22.744  24.637  0.00  0.00    +0.367 C 
ATOM     51  OD2 ASP A   4      -0.477  22.797  25.750  0.00  0.00    -0.246 OA
ATOM     52  OD1 ASP A   4      -1.297  23.771  23.969  0.00  0.00    -0.246 OA
ENDBRANCH  49  50
ENDBRANCH  15  49
ENDBRANCH  11  15
ENDBRANCH  10  13
ENDBRANCH   6  10
ENDBRANCH   5   8
BRANCH   5  53
ATOM     53  CB  SER A   6      -4.874  18.435  15.779  0.00  0.00    +0.166 C 
BRANCH  53  54
ATOM     54  OG  SER A   6      -5.838  17.435  16.075  0.00  0.00    -0.380 OA
ATOM     55  H   SER A   6      -6.743  17.836  16.060  0.00  0.00    +0.211 HD
ENDBRANCH  53  54
ENDBRANCH   5  53
ENDBRANCH   1   5
BRANCH   2  56
ATOM     56  CA  THR A   7      -8.454  20.819  17.460  0.00  0.00    +0.176 C 
BRANCH  56  57
ATOM     57  C   THR A   7      -8.219  22.248  17.929  0.00  0.00    +0.243 C 
ATOM     58  N   MET A   8      -7.553  22.405  19.072  0.00  0.00    -0.297 N 
ATOM     59  H   MET A   8      -7.316  21.570  19.645  0.00  0.00    +0.150 HD
ATOM     60  O   THR A   7      -8.595  23.193  17.242  0.00  0.00    -0.273 OA
BRANCH  58  61
ATOM     61  CA  MET A   8      -7.152  23.728  19.532  0.00  0.00    +0.149 C 
BRANCH  61  62
ATOM     62  C   MET A   8      -6.375  24.462  18.432  0.00  0.00    +0.241 C 
ATOM     63  O   MET A   8      -6.654  25.608  18.120  0.00  0.00    -0.273 OA
ATOM     64  N   THR A   9      -5.398  23.777  17.834  0.00  0.00    -0.295 N 
ATOM     65  H   THR A   9      -5.253  22.776  18.078  0.00  0.00    +0.150 HD
BRANCH  64  66
ATOM     66  CA  THR A   9      -4.530  24.407  16.844  0.00  0.00    +0.176 C 
BRANCH  66  67
ATOM     67  C   THR A   9      -5.283  24.794  15.574  0.00  0.00    +0.243 C 
ATOM     68  N   PHE A  10      -6.265  23.981  15.193  0.00  0.00    -0.297 N 
ATOM     69  H   PHE A  10      -6.425  23.097  15.717  0.00  0.00    +0.150 HD
ATOM     70  O   THR A   9      -4.978  25.824  14.954  0.00  0.00    -0.273 OA
BRANCH  68  71
ATOM     71  CA  PHE A  10      -7.121  24.302  14.058  0.00  0.00    +0.153 C 
BRANCH  71  72
ATOM     72  C   PHE A  10      -7.762  25.670  14.258  0.00  0.00    +0.241 C 
ATOM     73  N   PHE A  11      -8.299  25.898  15.450  0.00  0.00    -0.298 N 
ATOM     74  H   PHE A  11      -8.279  25.162  16.184  0.00  0.00    +0.150 HD
ATOM     75  O   PHE A  10      -7.762  26.514  13.350  0.00  0.00    -0.273 OA
BRANCH  73  76
ATOM     76  CA  PHE A  11      -8.917  27.191  15.720  0.00  0.00    +0.141 C 
BRANCH  76  77
ATOM     77  C   PHE A  11      -7.886  28.303  15.776  0.00  0.00    +0.227 C 
ATOM     78  O   PHE A  11      -8.103  29.360  15.189  0.00  0.00    -0.286 OA
ENDBRANCH  76  77
BRANCH  76  79
ATOM     79  CB  PHE A  11      -9.805  27.104  16.957  0.00  0.00    +0.054 C 
BRANCH  79  80
ATOM     80  CG  PHE A  11     -11.087  26.395  16.671  0.00  0.00    -0.020 A 
ATOM     81  CD2 PHE A  11     -11.215  25.040  16.936  0.00  0.00    -0.004 A 
ATOM     82  CE2 PHE A  11     -12.380  24.366  16.619  0.00  0.00    -0.000 A 
ATOM     83  CZ  PHE A  11     -13.439  25.043  16.004  0.00  0.00    -0.000 A 
ATOM     84  CE1 PHE A  11     -13.313  26.387  15.717  0.00  0.00    -0.000 A 
ATOM     85  CD1 PHE A  11     -12.147  27.060  16.042  0.00  0.00    -0.004 A 
ENDBRANCH  79  80
ENDBRANCH  76  79
ENDBRANCH  73  76
ENDBRANCH  71  72
BRANCH  71  86
ATOM     86  CB  PHE A  10      -8.226  23.256  13.896  0.00  0.00    +0.055 C 
BRANCH  86  87
ATOM     87  CG  PHE A  10      -9.272  23.644  12.883  0.00  0.00    -0.020 A 
ATOM     88  CD2 PHE A  10     -10.397  24.373  13.263  0.00  0.00    -0.004 A 
ATOM     89  CE2 PHE A  10     -11.350  24.746  12.332  0.00  0.00    -0.000 A 
ATOM     90  CZ  PHE A  10     -11.190  24.392  10.987  0.00  0.00    -0.000 A 
ATOM     91  CE1 PHE A  10     -10.083  23.648  10.601  0.00  0.00    -0.000 A 
ATOM     92  CD1 PHE A  10      -9.129  23.284  11.547  0.00  0.00    -0.004 A 
ENDBRANCH  86  87
ENDBRANCH  71  86
ENDBRANCH  68  71
ENDBRANCH  66  67
BRANCH  66  93
ATOM     93  CB  THR A   9      -3.323  23.514  16.548  0.00  0.00    +0.137 C 
ATOM     94  CG2 THR A   9      -2.436  24.121  15.473  0.00  0.00    +0.034 C 
BRANCH  93  95
ATOM     95  OG1 THR A   9      -2.570  23.348  17.755  0.00  0.00    -0.382 OA
ATOM     96  HG1 THR A   9      -1.785  22.771  17.576  0.00  0.00    +0.210 HD
ENDBRANCH  93  95
ENDBRANCH  66  93
ENDBRANCH  64  66
ENDBRANCH  61  62
BRANCH  61  97
ATOM     97  CB  MET A   8      -6.281  23.618  20.792  0.00  0.00    +0.041 C 
BRANCH  97  98
ATOM     98  CG  MET A   8      -5.958  24.970  21.401  0.00  0.00    +0.060 C 
BRANCH  98  99
ATOM     99  SD  MET A   8      -4.525  25.008  22.457  0.00  0.00    -0.139 S 
ATOM    100  CE  MET A   8      -3.216  24.871  21.232  0.00  0.00    +0.069 C 
ENDBRANCH  98  99
ENDBRANCH  97  98
ENDBRANCH  61  97
ENDBRANCH  58  61
ENDBRANCH  56  57
BRANCH  56 101
ATOM    101  CB  THR A   7      -9.552  20.115  18.255  0.00  0.00    +0.137 C 
ATOM    102  CG2 THR A   7     -10.840  20.947  18.280  0.00  0.00    +0.034 C 
BRANCH 101 103
ATOM    103  OG1 THR A   7      -9.824  18.868  17.614  0.00  0.00    -0.382 OA
ATOM    104  HG1 THR A   7      -9.001  18.318  17.602  0.00  0.00    +0.210 HD
ENDBRANCH 101 103
ENDBRANCH  56 101
ENDBRANCH   2  56
TORSDOF 42
REMARK  Name = ../refined-set-2016/3fv1/3fv1_pocket.pdb
REMARK  235 active torsions:
REMARK  status: ('A' for Active; 'I' for Inactive)
REMARK    1  A    between atoms: _1  and  _3
REMARK    2  A    between atoms: _3  and  _4
REMARK    3  A    between atoms: _3  and  _6
REMARK    4  A    between atoms: _6  and  _7
REMARK    5  A    between atoms: _10  and  _12
REMARK    6  A    between atoms: _12  and  _13
REMARK    7  A    between atoms: _12  and  _15
REMARK    8  A    between atoms: _15  and  _16
REMARK    9  A    between atoms: _19  and  _21
REMARK   10  A    between atoms: _21  and  _22
REMARK   11  A    between atoms: _21  and  _24
REMARK   12  A    between atoms: _24  and  _25
REMARK   13  A    between atoms: _25  and  _26
REMARK   14  A    between atoms: _29  and  _31
REMARK   15  A    between atoms: _31  and  _32
REMARK   16  A    between atoms: _31  and  _34
REMARK   17  A    between atoms: _34  and  _35
REMARK   18  A    between atoms: _35  and  _36
REMARK   19  A    between atoms: _40  and  _41
REMARK   20  A    between atoms: _46  and  _48
REMARK   21  A    between atoms: _48  and  _49
REMARK   22  A    between atoms: _48  and  _51
REMARK   23  A    between atoms: _51  and  _52
REMARK   24  A    between atoms: _57  and  _58
REMARK   25  A    between atoms: _60  and  _62
REMARK   26  A    between atoms: _62  and  _63
REMARK   27  A    between atoms: _62  and  _65
REMARK   28  A    between atoms: _67  and  _69
REMARK   29  A    between atoms: _69  and  _70
REMARK   30  A    between atoms: _69  and  _72
REMARK   31  A    between atoms: _72  and  _73
REMARK   32  A    between atoms: _73  and  _74
REMARK   33  A    between atoms: _74  and  _75
REMARK   34  A    between atoms: _75  and  _76
REMARK   35  A    between atoms: _80  and  _82
REMARK   36  A    between atoms: _82  and  _83
REMARK   37  A    between atoms: _82  and  _85
REMARK   38  A    between atoms: _85  and  _86
REMARK   39  A    between atoms: _91  and  _92
REMARK   40  A    between atoms: _94  and  _96
REMARK   41  A    between atoms: _96  and  _97
REMARK   42  A    between atoms: _99  and  _101
REMARK   43  A    between atoms: _101  and  _102
REMARK   44  A    between atoms: _105  and  _107
REMARK   45  A    between atoms: _107  and  _108
REMARK   46  A    between atoms: _107  and  _110
REMARK   47  A    between atoms: _110  and  _111
REMARK   48  A    between atoms: _121  and  _123
REMARK   49  A    between atoms: _123  and  _124
REMARK   50  A    between atoms: _126  and  _128
REMARK   51  A    between atoms: _128  and  _129
REMARK   52  A    between atoms: _128  and  _131
REMARK   53  A    between atoms: _131  and  _132
REMARK   54  A    between atoms: _132  and  _133
REMARK   55  A    between atoms: _135  and  _137
REMARK   56  A    between atoms: _137  and  _138
REMARK   57  A    between atoms: _137  and  _140
REMARK   58  A    between atoms: _143  and  _145
REMARK   59  A    between atoms: _145  and  _146
REMARK   60  A    between atoms: _150  and  _151
REMARK   61  A    between atoms: _156  and  _158
REMARK   62  A    between atoms: _158  and  _159
REMARK   63  A    between atoms: _158  and  _161
REMARK   64  A    between atoms: _161  and  _162
REMARK   65  A    between atoms: _165  and  _167
REMARK   66  A    between atoms: _167  and  _168
REMARK   67  A    between atoms: _167  and  _170
REMARK   68  A    between atoms: _170  and  _171
REMARK   69  A    between atoms: _174  and  _176
REMARK   70  A    between atoms: _176  and  _177
REMARK   71  A    between atoms: _176  and  _179
REMARK   72  A    between atoms: _179  and  _180
REMARK   73  A    between atoms: _183  and  _185
REMARK   74  A    between atoms: _185  and  _186
REMARK   75  A    between atoms: _185  and  _188
REMARK   76  A    between atoms: _188  and  _189
REMARK   77  A    between atoms: _192  and  _194
REMARK   78  A    between atoms: _194  and  _195
REMARK   79  A    between atoms: _194  and  _197
REMARK   80  A    between atoms: _197  and  _198
REMARK   81  A    between atoms: _198  and  _199
REMARK   82  A    between atoms: _199  and  _200
REMARK   83  A    between atoms: _209  and  _211
REMARK   84  A    between atoms: _211  and  _212
REMARK   85  A    between atoms: _211  and  _214
REMARK   86  A    between atoms: _214  and  _215
REMARK   87  A    between atoms: _221  and  _223
REMARK   88  A    between atoms: _223  and  _224
REMARK   89  A    between atoms: _223  and  _226
REMARK   90  A    between atoms: _226  and  _227
REMARK   91  A    between atoms: _230  and  _232
REMARK   92  A    between atoms: _232  and  _233
REMARK   93  A    between atoms: _235  and  _237
REMARK   94  A    between atoms: _237  and  _238
REMARK   95  A    between atoms: _237  and  _240
REMARK   96  A    between atoms: _240  and  _241
REMARK   97  A    between atoms: _244  and  _246
REMARK   98  A    between atoms: _246  and  _247
REMARK   99  A    between atoms: _246  and  _249
REMARK  100  A    between atoms: _249  and  _250
REMARK  101  A    between atoms: _252  and  _254
REMARK  102  A    between atoms: _254  and  _255
REMARK  103  A    between atoms: _254  and  _257
REMARK  104  A    between atoms: _257  and  _258
REMARK  105  A    between atoms: _261  and  _263
REMARK  106  A    between atoms: _263  and  _264
REMARK  107  A    between atoms: _267  and  _269
REMARK  108  A    between atoms: _269  and  _270
REMARK  109  A    between atoms: _269  and  _272
REMARK  110  A    between atoms: _275  and  _277
REMARK  111  A    between atoms: _277  and  _278
REMARK  112  A    between atoms: _277  and  _280
REMARK  113  A    between atoms: _280  and  _281
REMARK  114  A    between atoms: _281  and  _282
REMARK  115  A    between atoms: _282  and  _283
REMARK  116  A    between atoms: _292  and  _294
REMARK  117  A    between atoms: _294  and  _295
REMARK  118  A    between atoms: _294  and  _297
REMARK  119  A    between atoms: _297  and  _298
REMARK  120  A    between atoms: _301  and  _303
REMARK  121  A    between atoms: _303  and  _304
REMARK  122  A    between atoms: _306  and  _308
REMARK  123  A    between atoms: _308  and  _309
REMARK  124  A    between atoms: _308  and  _311
REMARK  125  A    between atoms: _311  and  _312
REMARK  126  A    between atoms: _314  and  _316
REMARK  127  A    between atoms: _316  and  _317
REMARK  128  A    between atoms: _316  and  _319
REMARK  129  A    between atoms: _319  and  _320
REMARK  130  A    between atoms: _323  and  _325
REMARK  131  A    between atoms: _325  and  _326
REMARK  132  A    between atoms: _325  and  _328
REMARK  133  A    between atoms: _328  and  _329
REMARK  134  A    between atoms: _329  and  _330
REMARK  135  A    between atoms: _332  and  _334
REMARK  136  A    between atoms: _334  and  _335
REMARK  137  A    between atoms: _334  and  _337
REMARK  138  A    between atoms: _337  and  _338
REMARK  139  A    between atoms: _341  and  _343
REMARK  140  A    between atoms: _343  and  _344
REMARK  141  A    between atoms: _343  and  _346
REMARK  142  A    between atoms: _346  and  _347
REMARK  143  A    between atoms: _353  and  _355
REMARK  144  A    between atoms: _355  and  _356
REMARK  145  A    between atoms: _355  and  _358
REMARK  146  A    between atoms: _358  and  _359
REMARK  147  A    between atoms: _365  and  _367
REMARK  148  A    between atoms: _367  and  _368
REMARK  149  A    between atoms: _367  and  _370
REMARK  150  A    between atoms: _373  and  _375
REMARK  151  A    between atoms: _375  and  _376
REMARK  152  A    between atoms: _375  and  _378
REMARK  153  A    between atoms: _378  and  _379
REMARK  154  A    between atoms: _379  and  _380
REMARK  155  A    between atoms: _380  and  _381
REMARK  156  A    between atoms: _390  and  _392
REMARK  157  A    between atoms: _392  and  _393
REMARK  158  A    between atoms: _392  and  _395
REMARK  159  A    between atoms: _395  and  _396
REMARK  160  A    between atoms: _401  and  _403
REMARK  161  A    between atoms: _403  and  _404
REMARK  162  A    between atoms: _403  and  _406
REMARK  163  A    between atoms: _406  and  _407
REMARK  164  A    between atoms: _409  and  _411
REMARK  165  A    between atoms: _411  and  _412
REMARK  166  A    between atoms: _411  and  _414
REMARK  167  A    between atoms: _414  and  _415
REMARK  168  A    between atoms: _418  and  _420
REMARK  169  A    between atoms: _420  and  _421
REMARK  170  A    between atoms: _423  and  _425
REMARK  171  A    between atoms: _425  and  _426
REMARK  172  A    between atoms: _425  and  _428
REMARK  173  A    between atoms: _428  and  _429
REMARK  174  A    between atoms: _432  and  _434
REMARK  175  A    between atoms: _434  and  _435
REMARK  176  A    between atoms: _434  and  _437
REMARK  177  A    between atoms: _437  and  _438
REMARK  178  A    between atoms: _441  and  _443
REMARK  179  A    between atoms: _443  and  _444
REMARK  180  A    between atoms: _443  and  _446
REMARK  181  A    between atoms: _446  and  _447
REMARK  182  A    between atoms: _450  and  _452
REMARK  183  A    between atoms: _452  and  _453
REMARK  184  A    between atoms: _452  and  _455
REMARK  185  A    between atoms: _455  and  _456
REMARK  186  A    between atoms: _456  and  _457
REMARK  187  A    between atoms: _459  and  _461
REMARK  188  A    between atoms: _461  and  _462
REMARK  189  A    between atoms: _461  and  _464
REMARK  190  A    between atoms: _464  and  _465
REMARK  191  A    between atoms: _465  and  _466
REMARK  192  A    between atoms: _469  and  _471
REMARK  193  A    between atoms: _471  and  _472
REMARK  194  A    between atoms: _471  and  _474
REMARK  195  A    between atoms: _474  and  _475
REMARK  196  A    between atoms: _477  and  _479
REMARK  197  A    between atoms: _479  and  _480
REMARK  198  A    between atoms: _479  and  _482
REMARK  199  A    between atoms: _482  and  _483
REMARK  200  A    between atoms: _486  and  _488
REMARK  201  A    between atoms: _488  and  _489
REMARK  202  A    between atoms: _488  and  _491
REMARK  203  A    between atoms: _491  and  _492
REMARK  204  A    between atoms: _494  and  _496
REMARK  205  A    between atoms: _496  and  _497
REMARK  206  A    between atoms: _496  and  _499
REMARK  207  A    between atoms: _499  and  _500
REMARK  208  A    between atoms: _503  and  _505
REMARK  209  A    between atoms: _505  and  _506
REMARK  210  A    between atoms: _505  and  _508
REMARK  211  A    between atoms: _508  and  _509
REMARK  212  A    between atoms: _514  and  _515
REMARK  213  A    between atoms: _517  and  _519
REMARK  214  A    between atoms: _519  and  _520
REMARK  215  A    between atoms: _519  and  _522
REMARK  216  A    between atoms: _525  and  _527
REMARK  217  A    between atoms: _527  and  _528
REMARK  218  A    between atoms: _527  and  _530
REMARK  219  A    between atoms: _530  and  _531
REMARK  220  A    between atoms: _531  and  _532
REMARK  221  A    between atoms: _532  and  _533
REMARK  222  A    between atoms: _533  and  _534
REMARK  223  A    between atoms: _538  and  _540
REMARK  224  A    between atoms: _540  and  _541
REMARK  225  A    between atoms: _543  and  _545
REMARK  226  A    between atoms: _545  and  _546
REMARK  227  A    between atoms: _545  and  _548
REMARK  228  A    between atoms: _548  and  _549
REMARK  229  A    between atoms: _554  and  _555
REMARK  230  A    between atoms: _557  and  _559
REMARK  231  A    between atoms: _559  and  _560
REMARK  232  A    between atoms: _562  and  _564
REMARK  233  A    between atoms: _564  and  _565
REMARK  234  A    between atoms: _564  and  _567
REMARK  235  A    between atoms: _567  and  _568
REMARK                            x       y       z     vdW  Elec       q    Type
REMARK                         _______ _______ _______ _____ _____    ______ ____
ROOT
ATOM      1  C   ARG A   2      -6.976  17.799  29.130  0.00  0.00    +0.241 C 
ATOM      2  N   ASN A   3      -8.143  17.175  29.065  0.00  0.00    -0.297 N 
ATOM      3  H   ASN A   3      -8.960  17.591  29.557  0.00  0.00    +0.150 HD
ATOM      4  O   ARG A   2      -5.967  17.424  28.508  0.00  0.00    -0.273 OA
ENDROOT
BRANCH   2   5
ATOM      5  CA  ASN A   3      -8.328  15.929  28.331  0.00  0.00    +0.158 C 
BRANCH   5   6
ATOM      6  C   ASN A   3      -9.800  15.742  28.012  0.00  0.00    +0.241 C 
ATOM      7  O   ASN A   3     -10.634  16.536  28.469  0.00  0.00    -0.273 OA
ATOM      8  N   SER A   4     -10.117  14.708  27.237  0.00  0.00    -0.295 N 
ATOM      9  H   SER A   4      -9.361  14.071  26.913  0.00  0.00    +0.150 HD
BRANCH   8  10
ATOM     10  CA  SER A   4     -11.488  14.439  26.828  0.00  0.00    +0.178 C 
BRANCH  10  11
ATOM     11  C   SER A   4     -12.446  14.280  28.001  0.00  0.00    +0.243 C 
ATOM     12  N   ASP A   5     -12.025  13.570  29.047  0.00  0.00    -0.297 N 
ATOM     13  H   ASP A   5     -11.060  13.182  29.053  0.00  0.00    +0.150 HD
ATOM     14  O   SER A   4     -13.558  14.795  27.951  0.00  0.00    -0.273 OA
BRANCH  12  15
ATOM     15  CA  ASP A   5     -12.911  13.333  30.188  0.00  0.00    +0.148 C 
BRANCH  15  16
ATOM     16  C   ASP A   5     -13.293  14.606  30.919  0.00  0.00    +0.227 C 
ATOM     17  O   ASP A   5     -14.457  14.774  31.292  0.00  0.00    -0.286 OA
ENDBRANCH  15  16
BRANCH  15  18
ATOM     18  CB  ASP A   5     -12.319  12.312  31.148  0.00  0.00    +0.142 C 
BRANCH  18  19
ATOM     19  CG  ASP A   5     -12.496  10.893  30.661  0.00  0.00    +0.367 C 
ATOM     20  OD2 ASP A   5     -11.643  10.057  30.992  0.00  0.00    -0.246 OA
ATOM     21  OD1 ASP A   5     -13.499  10.611  29.964  0.00  0.00    -0.246 OA
ENDBRANCH  18  19
ENDBRANCH  15  18
ENDBRANCH  12  15
ENDBRANCH  10  11
BRANCH  10  22
ATOM     22  CB  SER A   4     -11.554  13.191  25.957  0.00  0.00    +0.166 C 
BRANCH  22  23
ATOM     23  OG  SER A   4     -10.688  13.327  24.848  0.00  0.00    -0.380 OA
ATOM     24  H   SER A   4     -10.739  12.511  24.289  0.00  0.00    +0.211 HD
ENDBRANCH  22  23
ENDBRANCH  10  22
ENDBRANCH   8  10
ENDBRANCH   5   6
BRANCH   5  25
ATOM     25  CB  ASN A   3      -7.754  14.728  29.120  0.00  0.00    +0.114 C 
BRANCH  25  26
ATOM     26  CG  ASN A   3      -8.301  14.620  30.541  0.00  0.00    +0.222 C 
ATOM     27  ND2 ASN A   3      -7.460  14.172  31.462  0.00  0.00    -0.329 N 
ATOM     28 HD21 ASN A   3      -7.779  14.057  32.445  0.00  0.00    +0.145 HD
ATOM     29 HD22 ASN A   3      -6.481  13.935  31.201  0.00  0.00    +0.145 HD
ATOM     30  OD1 ASN A   3      -9.456  14.910  30.799  0.00  0.00    -0.275 OA
ENDBRANCH  25  26
ENDBRANCH   5  25
ENDBRANCH   2   5
BRANCH   1  31
ATOM     31  CA  ARG A   2      -6.919  18.994  30.086  0.00  0.00    +0.149 C 
BRANCH  31  33
ATOM     32  C   VAL A   1      -8.452  20.553  28.996  0.00  0.00    +0.238 C 
ATOM     33  N   ARG A   2      -8.129  19.823  30.059  0.00  0.00    -0.297 N 
ATOM     34  H   ARG A   2      -8.750  19.840  30.893  0.00  0.00    +0.150 HD
ATOM     35  O   VAL A   1      -7.817  20.501  27.935  0.00  0.00    -0.274 OA
BRANCH  32  36
ATOM     36  CA  VAL A   1      -9.665  21.479  29.140  0.00  0.00    +0.145 C 
BRANCH  36  37
ATOM     37  CB  VAL A   1     -10.981  20.672  29.118  0.00  0.00    +0.025 C 
ATOM     38  CG2 VAL A   1     -12.173  21.577  29.464  0.00  0.00    +0.002 C 
ATOM     39  CG1 VAL A   1     -11.178  20.019  27.764  0.00  0.00    +0.002 C 
ENDBRANCH  36  37
BRANCH  36  40
ATOM     40  N   VAL A   1      -9.673  22.526  28.111  0.00  0.00    -0.238 NA
ATOM     41  H   VAL A   1      -9.978  22.282  27.147  0.00  0.00    +0.142 HD
ENDBRANCH  36  40
ENDBRANCH  32  36
ENDBRANCH  31  33
BRANCH  31  42
ATOM     42  CB  ARG A   2      -6.658  18.500  31.516  0.00  0.00    +0.033 C 
BRANCH  42  43
ATOM     43  CG  ARG A   2      -5.440  17.623  31.666  0.00  0.00    +0.045 C 
BRANCH  43  44
ATOM     44  CD  ARG A   2      -5.191  17.287  33.127  0.00  0.00    +0.174 C 
BRANCH  44  45
ATOM     45  NE  ARG A   2      -4.847  18.475  33.909  0.00  0.00    -0.265 N 
ATOM     46  HE  ARG A   2      -5.616  18.959  34.415  0.00  0.00    +0.259 HD
ATOM     47  CZ  ARG A   2      -3.619  18.982  34.019  0.00  0.00    +0.342 C 
ATOM     48  NH2 ARG A   2      -3.418  20.069  34.754  0.00  0.00    -0.292 N 
ATOM     49 HH21 ARG A   2      -4.217  20.522  35.242  0.00  0.00    +0.255 HD
ATOM     50 HH22 ARG A   2      -2.461  20.468  34.842  0.00  0.00    +0.255 HD
ATOM     51  NH1 ARG A   2      -2.591  18.407  33.396  0.00  0.00    -0.292 N 
ATOM     52 HH11 ARG A   2      -1.636  18.809  33.487  0.00  0.00    +0.255 HD
ATOM     53 HH12 ARG A   2      -2.743  17.556  32.818  0.00  0.00    +0.255 HD
ENDBRANCH  44  45
ENDBRANCH  43  44
ENDBRANCH  42  43
ENDBRANCH  31  42
ENDBRANCH   1  31
TORSDOF 21
REMARK  Name = ../refined-set-2016/3fv1/3fv1_pocket.pdb
REMARK  235 active torsions:
REMARK  status: ('A' for Active; 'I' for Inactive)
REMARK    1  A    between atoms: _1  and  _3
REMARK    2  A    between atoms: _3  and  _4
REMARK    3  A    between atoms: _3  and  _6
REMARK    4  A    between atoms: _6  and  _7
REMARK    5  A    between atoms: _10  and  _12
REMARK    6  A    between atoms: _12  and  _13
REMARK    7  A    between atoms: _12  and  _15
REMARK    8  A    between atoms: _15  and  _16
REMARK    9  A    between atoms: _19  and  _21
REMARK   10  A    between atoms: _21  and  _22
REMARK   11  A    between atoms: _21  and  _24
REMARK   12  A    between atoms: _24  and  _25
REMARK   13  A    between atoms: _25  and  _26
REMARK   14  A    between atoms: _29  and  _31
REMARK   15  A    between atoms: _31  and  _32
REMARK   16  A    between atoms: _31  and  _34
REMARK   17  A    between atoms: _34  and  _35
REMARK   18  A    between atoms: _35  and  _36
REMARK   19  A    between atoms: _40  and  _41
REMARK   20  A    between atoms: _46  and  _48
REMARK   21  A    between atoms: _48  and  _49
REMARK   22  A    between atoms: _48  and  _51
REMARK   23  A    between atoms: _51  and  _52
REMARK   24  A    between atoms: _57  and  _58
REMARK   25  A    between atoms: _60  and  _62
REMARK   26  A    between atoms: _62  and  _63
REMARK   27  A    between atoms: _62  and  _65
REMARK   28  A    between atoms: _67  and  _69
REMARK   29  A    between atoms: _69  and  _70
REMARK   30  A    between atoms: _69  and  _72
REMARK   31  A    between atoms: _72  and  _73
REMARK   32  A    between atoms: _73  and  _74
REMARK   33  A    between atoms: _74  and  _75
REMARK   34  A    between atoms: _75  and  _76
REMARK   35  A    between atoms: _80  and  _82
REMARK   36  A    between atoms: _82  and  _83
REMARK   37  A    between atoms: _82  and  _85
REMARK   38  A    between atoms: _85  and  _86
REMARK   39  A    between atoms: _91  and  _92
REMARK   40  A    between atoms: _94  and  _96
REMARK   41  A    between atoms: _96  and  _97
REMARK   42  A    between atoms: _99  and  _101
REMARK   43  A    between atoms: _101  and  _102
REMARK   44  A    between atoms: _105  and  _107
REMARK   45  A    between atoms: _107  and  _108
REMARK   46  A    between atoms: _107  and  _110
REMARK   47  A    between atoms: _110  and  _111
REMARK   48  A    between atoms: _121  and  _123
REMARK   49  A    between atoms: _123  and  _124
REMARK   50  A    between atoms: _126  and  _128
REMARK   51  A    between atoms: _128  and  _129
REMARK   52  A    between atoms: _128  and  _131
REMARK   53  A    between atoms: _131  and  _132
REMARK   54  A    between atoms: _132  and  _133
REMARK   55  A    between atoms: _135  and  _137
REMARK   56  A    between atoms: _137  and  _138
REMARK   57  A    between atoms: _137  and  _140
REMARK   58  A    between atoms: _143  and  _145
REMARK   59  A    between atoms: _145  and  _146
REMARK   60  A    between atoms: _150  and  _151
REMARK   61  A    between atoms: _156  and  _158
REMARK   62  A    between atoms: _158  and  _159
REMARK   63  A    between atoms: _158  and  _161
REMARK   64  A    between atoms: _161  and  _162
REMARK   65  A    between atoms: _165  and  _167
REMARK   66  A    between atoms: _167  and  _168
REMARK   67  A    between atoms: _167  and  _170
REMARK   68  A    between atoms: _170  and  _171
REMARK   69  A    between atoms: _174  and  _176
REMARK   70  A    between atoms: _176  and  _177
REMARK   71  A    between atoms: _176  and  _179
REMARK   72  A    between atoms: _179  and  _180
REMARK   73  A    between atoms: _183  and  _185
REMARK   74  A    between atoms: _185  and  _186
REMARK   75  A    between atoms: _185  and  _188
REMARK   76  A    between atoms: _188  and  _189
REMARK   77  A    between atoms: _192  and  _194
REMARK   78  A    between atoms: _194  and  _195
REMARK   79  A    between atoms: _194  and  _197
REMARK   80  A    between atoms: _197  and  _198
REMARK   81  A    between atoms: _198  and  _199
REMARK   82  A    between atoms: _199  and  _200
REMARK   83  A    between atoms: _209  and  _211
REMARK   84  A    between atoms: _211  and  _212
REMARK   85  A    between atoms: _211  and  _214
REMARK   86  A    between atoms: _214  and  _215
REMARK   87  A    between atoms: _221  and  _223
REMARK   88  A    between atoms: _223  and  _224
REMARK   89  A    between atoms: _223  and  _226
REMARK   90  A    between atoms: _226  and  _227
REMARK   91  A    between atoms: _230  and  _232
REMARK   92  A    between atoms: _232  and  _233
REMARK   93  A    between atoms: _235  and  _237
REMARK   94  A    between atoms: _237  and  _238
REMARK   95  A    between atoms: _237  and  _240
REMARK   96  A    between atoms: _240  and  _241
REMARK   97  A    between atoms: _244  and  _246
REMARK   98  A    between atoms: _246  and  _247
REMARK   99  A    between atoms: _246  and  _249
REMARK  100  A    between atoms: _249  and  _250
REMARK  101  A    between atoms: _252  and  _254
REMARK  102  A    between atoms: _254  and  _255
REMARK  103  A    between atoms: _254  and  _257
REMARK  104  A    between atoms: _257  and  _258
REMARK  105  A    between atoms: _261  and  _263
REMARK  106  A    between atoms: _263  and  _264
REMARK  107  A    between atoms: _267  and  _269
REMARK  108  A    between atoms: _269  and  _270
REMARK  109  A    between atoms: _269  and  _272
REMARK  110  A    between atoms: _275  and  _277
REMARK  111  A    between atoms: _277  and  _278
REMARK  112  A    between atoms: _277  and  _280
REMARK  113  A    between atoms: _280  and  _281
REMARK  114  A    between atoms: _281  and  _282
REMARK  115  A    between atoms: _282  and  _283
REMARK  116  A    between atoms: _292  and  _294
REMARK  117  A    between atoms: _294  and  _295
REMARK  118  A    between atoms: _294  and  _297
REMARK  119  A    between atoms: _297  and  _298
REMARK  120  A    between atoms: _301  and  _303
REMARK  121  A    between atoms: _303  and  _304
REMARK  122  A    between atoms: _306  and  _308
REMARK  123  A    between atoms: _308  and  _309
REMARK  124  A    between atoms: _308  and  _311
REMARK  125  A    between atoms: _311  and  _312
REMARK  126  A    between atoms: _314  and  _316
REMARK  127  A    between atoms: _316  and  _317
REMARK  128  A    between atoms: _316  and  _319
REMARK  129  A    between atoms: _319  and  _320
REMARK  130  A    between atoms: _323  and  _325
REMARK  131  A    between atoms: _325  and  _326
REMARK  132  A    between atoms: _325  and  _328
REMARK  133  A    between atoms: _328  and  _329
REMARK  134  A    between atoms: _329  and  _330
REMARK  135  A    between atoms: _332  and  _334
REMARK  136  A    between atoms: _334  and  _335
REMARK  137  A    between atoms: _334  and  _337
REMARK  138  A    between atoms: _337  and  _338
REMARK  139  A    between atoms: _341  and  _343
REMARK  140  A    between atoms: _343  and  _344
REMARK  141  A    between atoms: _343  and  _346
REMARK  142  A    between atoms: _346  and  _347
REMARK  143  A    between atoms: _353  and  _355
REMARK  144  A    between atoms: _355  and  _356
REMARK  145  A    between atoms: _355  and  _358
REMARK  146  A    between atoms: _358  and  _359
REMARK  147  A    between atoms: _365  and  _367
REMARK  148  A    between atoms: _367  and  _368
REMARK  149  A    between atoms: _367  and  _370
REMARK  150  A    between atoms: _373  and  _375
REMARK  151  A    between atoms: _375  and  _376
REMARK  152  A    between atoms: _375  and  _378
REMARK  153  A    between atoms: _378  and  _379
REMARK  154  A    between atoms: _379  and  _380
REMARK  155  A    between atoms: _380  and  _381
REMARK  156  A    between atoms: _390  and  _392
REMARK  157  A    between atoms: _392  and  _393
REMARK  158  A    between atoms: _392  and  _395
REMARK  159  A    between atoms: _395  and  _396
REMARK  160  A    between atoms: _401  and  _403
REMARK  161  A    between atoms: _403  and  _404
REMARK  162  A    between atoms: _403  and  _406
REMARK  163  A    between atoms: _406  and  _407
REMARK  164  A    between atoms: _409  and  _411
REMARK  165  A    between atoms: _411  and  _412
REMARK  166  A    between atoms: _411  and  _414
REMARK  167  A    between atoms: _414  and  _415
REMARK  168  A    between atoms: _418  and  _420
REMARK  169  A    between atoms: _420  and  _421
REMARK  170  A    between atoms: _423  and  _425
REMARK  171  A    between atoms: _425  and  _426
REMARK  172  A    between atoms: _425  and  _428
REMARK  173  A    between atoms: _428  and  _429
REMARK  174  A    between atoms: _432  and  _434
REMARK  175  A    between atoms: _434  and  _435
REMARK  176  A    between atoms: _434  and  _437
REMARK  177  A    between atoms: _437  and  _438
REMARK  178  A    between atoms: _441  and  _443
REMARK  179  A    between atoms: _443  and  _444
REMARK  180  A    between atoms: _443  and  _446
REMARK  181  A    between atoms: _446  and  _447
REMARK  182  A    between atoms: _450  and  _452
REMARK  183  A    between atoms: _452  and  _453
REMARK  184  A    between atoms: _452  and  _455
REMARK  185  A    between atoms: _455  and  _456
REMARK  186  A    between atoms: _456  and  _457
REMARK  187  A    between atoms: _459  and  _461
REMARK  188  A    between atoms: _461  and  _462
REMARK  189  A    between atoms: _461  and  _464
REMARK  190  A    between atoms: _464  and  _465
REMARK  191  A    between atoms: _465  and  _466
REMARK  192  A    between atoms: _469  and  _471
REMARK  193  A    between atoms: _471  and  _472
REMARK  194  A    between atoms: _471  and  _474
REMARK  195  A    between atoms: _474  and  _475
REMARK  196  A    between atoms: _477  and  _479
REMARK  197  A    between atoms: _479  and  _480
REMARK  198  A    between atoms: _479  and  _482
REMARK  199  A    between atoms: _482  and  _483
REMARK  200  A    between atoms: _486  and  _488
REMARK  201  A    between atoms: _488  and  _489
REMARK  202  A    between atoms: _488  and  _491
REMARK  203  A    between atoms: _491  and  _492
REMARK  204  A    between atoms: _494  and  _496
REMARK  205  A    between atoms: _496  and  _497
REMARK  206  A    between atoms: _496  and  _499
REMARK  207  A    between atoms: _499  and  _500
REMARK  208  A    between atoms: _503  and  _505
REMARK  209  A    between atoms: _505  and  _506
REMARK  210  A    between atoms: _505  and  _508
REMARK  211  A    between atoms: _508  and  _509
REMARK  212  A    between atoms: _514  and  _515
REMARK  213  A    between atoms: _517  and  _519
REMARK  214  A    between atoms: _519  and  _520
REMARK  215  A    between atoms: _519  and  _522
REMARK  216  A    between atoms: _525  and  _527
REMARK  217  A    between atoms: _527  and  _528
REMARK  218  A    between atoms: _527  and  _530
REMARK  219  A    between atoms: _530  and  _531
REMARK  220  A    between atoms: _531  and  _532
REMARK  221  A    between atoms: _532  and  _533
REMARK  222  A    between atoms: _533  and  _534
REMARK  223  A    between atoms: _538  and  _540
REMARK  224  A    between atoms: _540  and  _541
REMARK  225  A    between atoms: _543  and  _545
REMARK  226  A    between atoms: _545  and  _546
REMARK  227  A    between atoms: _545  and  _548
REMARK  228  A    between atoms: _548  and  _549
REMARK  229  A    between atoms: _554  and  _555
REMARK  230  A    between atoms: _557  and  _559
REMARK  231  A    between atoms: _559  and  _560
REMARK  232  A    between atoms: _562  and  _564
REMARK  233  A    between atoms: _564  and  _565
REMARK  234  A    between atoms: _564  and  _567
REMARK  235  A    between atoms: _567  and  _568
REMARK                            x       y       z     vdW  Elec       q    Type
REMARK                         _______ _______ _______ _____ _____    ______ ____
ROOT
ATOM      1  C   GLY A   1     -15.734  17.544  28.549  0.00  0.00    +0.240 C 
ATOM      2  O   GLY A   1     -16.726  18.283  28.620  0.00  0.00    -0.274 OA
ATOM      3  N   ILE A   2     -15.822  16.218  28.538  0.00  0.00    -0.298 N 
ATOM      4  H   ILE A   2     -14.952  15.650  28.500  0.00  0.00    +0.150 HD
ENDROOT
BRANCH   1   5
ATOM      5  CA  GLY A   1     -14.328  18.116  28.487  0.00  0.00    +0.169 C 
BRANCH   5   6
ATOM      6  N   GLY A   1     -13.439  17.467  29.453  0.00  0.00    -0.236 NA
ATOM      7  H   GLY A   1     -12.607  16.946  29.110  0.00  0.00    +0.142 HD
ENDBRANCH   5   6
ENDBRANCH   1   5
BRANCH   3   8
ATOM      8  CA  ILE A   2     -17.120  15.541  28.579  0.00  0.00    +0.137 C 
BRANCH   8   9
ATOM      9  C   ILE A   2     -17.858  15.841  29.886  0.00  0.00    +0.227 C 
ATOM     10  O   ILE A   2     -19.062  16.102  29.868  0.00  0.00    -0.286 OA
ENDBRANCH   8   9
BRANCH   8  11
ATOM     11  CB  ILE A   2     -16.989  14.018  28.332  0.00  0.00    +0.026 C 
ATOM     12  CG2 ILE A   2     -18.337  13.309  28.518  0.00  0.00    +0.002 C 
BRANCH  11  13
ATOM     13  CG1 ILE A   2     -16.469  13.754  26.916  0.00  0.00    +0.002 C 
ATOM     14  CD1 ILE A   2     -15.805  12.377  26.758  0.00  0.00    +0.000 C 
ENDBRANCH  11  13
ENDBRANCH   8  11
ENDBRANCH   3   8
TORSDOF 6
REMARK  Name = ../refined-set-2016/3fv1/3fv1_pocket.pdb
REMARK  235 active torsions:
REMARK  status: ('A' for Active; 'I' for Inactive)
REMARK    1  A    between atoms: _1  and  _3
REMARK    2  A    between atoms: _3  and  _4
REMARK    3  A    between atoms: _3  and  _6
REMARK    4  A    between atoms: _6  and  _7
REMARK    5  A    between atoms: _10  and  _12
REMARK    6  A    between atoms: _12  and  _13
REMARK    7  A    between atoms: _12  and  _15
REMARK    8  A    between atoms: _15  and  _16
REMARK    9  A    between atoms: _19  and  _21
REMARK   10  A    between atoms: _21  and  _22
REMARK   11  A    between atoms: _21  and  _24
REMARK   12  A    between atoms: _24  and  _25
REMARK   13  A    between atoms: _25  and  _26
REMARK   14  A    between atoms: _29  and  _31
REMARK   15  A    between atoms: _31  and  _32
REMARK   16  A    between atoms: _31  and  _34
REMARK   17  A    between atoms: _34  and  _35
REMARK   18  A    between atoms: _35  and  _36
REMARK   19  A    between atoms: _40  and  _41
REMARK   20  A    between atoms: _46  and  _48
REMARK   21  A    between atoms: _48  and  _49
REMARK   22  A    between atoms: _48  and  _51
REMARK   23  A    between atoms: _51  and  _52
REMARK   24  A    between atoms: _57  and  _58
REMARK   25  A    between atoms: _60  and  _62
REMARK   26  A    between atoms: _62  and  _63
REMARK   27  A    between atoms: _62  and  _65
REMARK   28  A    between atoms: _67  and  _69
REMARK   29  A    between atoms: _69  and  _70
REMARK   30  A    between atoms: _69  and  _72
REMARK   31  A    between atoms: _72  and  _73
REMARK   32  A    between atoms: _73  and  _74
REMARK   33  A    between atoms: _74  and  _75
REMARK   34  A    between atoms: _75  and  _76
REMARK   35  A    between atoms: _80  and  _82
REMARK   36  A    between atoms: _82  and  _83
REMARK   37  A    between atoms: _82  and  _85
REMARK   38  A    between atoms: _85  and  _86
REMARK   39  A    between atoms: _91  and  _92
REMARK   40  A    between atoms: _94  and  _96
REMARK   41  A    between atoms: _96  and  _97
REMARK   42  A    between atoms: _99  and  _101
REMARK   43  A    between atoms: _101  and  _102
REMARK   44  A    between atoms: _105  and  _107
REMARK   45  A    between atoms: _107  and  _108
REMARK   46  A    between atoms: _107  and  _110
REMARK   47  A    between atoms: _110  and  _111
REMARK   48  A    between atoms: _121  and  _123
REMARK   49  A    between atoms: _123  and  _124
REMARK   50  A    between atoms: _126  and  _128
REMARK   51  A    between atoms: _128  and  _129
REMARK   52  A    between atoms: _128  and  _131
REMARK   53  A    between atoms: _131  and  _132
REMARK   54  A    between atoms: _132  and  _133
REMARK   55  A    between atoms: _135  and  _137
REMARK   56  A    between atoms: _137  and  _138
REMARK   57  A    between atoms: _137  and  _140
REMARK   58  A    between atoms: _143  and  _145
REMARK   59  A    between atoms: _145  and  _146
REMARK   60  A    between atoms: _150  and  _151
REMARK   61  A    between atoms: _156  and  _158
REMARK   62  A    between atoms: _158  and  _159
REMARK   63  A    between atoms: _158  and  _161
REMARK   64  A    between atoms: _161  and  _162
REMARK   65  A    between atoms: _165  and  _167
REMARK   66  A    between atoms: _167  and  _168
REMARK   67  A    between atoms: _167  and  _170
REMARK   68  A    between atoms: _170  and  _171
REMARK   69  A    between atoms: _174  and  _176
REMARK   70  A    between atoms: _176  and  _177
REMARK   71  A    between atoms: _176  and  _179
REMARK   72  A    between atoms: _179  and  _180
REMARK   73  A    between atoms: _183  and  _185
REMARK   74  A    between atoms: _185  and  _186
REMARK   75  A    between atoms: _185  and  _188
REMARK   76  A    between atoms: _188  and  _189
REMARK   77  A    between atoms: _192  and  _194
REMARK   78  A    between atoms: _194  and  _195
REMARK   79  A    between atoms: _194  and  _197
REMARK   80  A    between atoms: _197  and  _198
REMARK   81  A    between atoms: _198  and  _199
REMARK   82  A    between atoms: _199  and  _200
REMARK   83  A    between atoms: _209  and  _211
REMARK   84  A    between atoms: _211  and  _212
REMARK   85  A    between atoms: _211  and  _214
REMARK   86  A    between atoms: _214  and  _215
REMARK   87  A    between atoms: _221  and  _223
REMARK   88  A    between atoms: _223  and  _224
REMARK   89  A    between atoms: _223  and  _226
REMARK   90  A    between atoms: _226  and  _227
REMARK   91  A    between atoms: _230  and  _232
REMARK   92  A    between atoms: _232  and  _233
REMARK   93  A    between atoms: _235  and  _237
REMARK   94  A    between atoms: _237  and  _238
REMARK   95  A    between atoms: _237  and  _240
REMARK   96  A    between atoms: _240  and  _241
REMARK   97  A    between atoms: _244  and  _246
REMARK   98  A    between atoms: _246  and  _247
REMARK   99  A    between atoms: _246  and  _249
REMARK  100  A    between atoms: _249  and  _250
REMARK  101  A    between atoms: _252  and  _254
REMARK  102  A    between atoms: _254  and  _255
REMARK  103  A    between atoms: _254  and  _257
REMARK  104  A    between atoms: _257  and  _258
REMARK  105  A    between atoms: _261  and  _263
REMARK  106  A    between atoms: _263  and  _264
REMARK  107  A    between atoms: _267  and  _269
REMARK  108  A    between atoms: _269  and  _270
REMARK  109  A    between atoms: _269  and  _272
REMARK  110  A    between atoms: _275  and  _277
REMARK  111  A    between atoms: _277  and  _278
REMARK  112  A    between atoms: _277  and  _280
REMARK  113  A    between atoms: _280  and  _281
REMARK  114  A    between atoms: _281  and  _282
REMARK  115  A    between atoms: _282  and  _283
REMARK  116  A    between atoms: _292  and  _294
REMARK  117  A    between atoms: _294  and  _295
REMARK  118  A    between atoms: _294  and  _297
REMARK  119  A    between atoms: _297  and  _298
REMARK  120  A    between atoms: _301  and  _303
REMARK  121  A    between atoms: _303  and  _304
REMARK  122  A    between atoms: _306  and  _308
REMARK  123  A    between atoms: _308  and  _309
REMARK  124  A    between atoms: _308  and  _311
REMARK  125  A    between atoms: _311  and  _312
REMARK  126  A    between atoms: _314  and  _316
REMARK  127  A    between atoms: _316  and  _317
REMARK  128  A    between atoms: _316  and  _319
REMARK  129  A    between atoms: _319  and  _320
REMARK  130  A    between atoms: _323  and  _325
REMARK  131  A    between atoms: _325  and  _326
REMARK  132  A    between atoms: _325  and  _328
REMARK  133  A    between atoms: _328  and  _329
REMARK  134  A    between atoms: _329  and  _330
REMARK  135  A    between atoms: _332  and  _334
REMARK  136  A    between atoms: _334  and  _335
REMARK  137  A    between atoms: _334  and  _337
REMARK  138  A    between atoms: _337  and  _338
REMARK  139  A    between atoms: _341  and  _343
REMARK  140  A    between atoms: _343  and  _344
REMARK  141  A    between atoms: _343  and  _346
REMARK  142  A    between atoms: _346  and  _347
REMARK  143  A    between atoms: _353  and  _355
REMARK  144  A    between atoms: _355  and  _356
REMARK  145  A    between atoms: _355  and  _358
REMARK  146  A    between atoms: _358  and  _359
REMARK  147  A    between atoms: _365  and  _367
REMARK  148  A    between atoms: _367  and  _368
REMARK  149  A    between atoms: _367  and  _370
REMARK  150  A    between atoms: _373  and  _375
REMARK  151  A    between atoms: _375  and  _376
REMARK  152  A    between atoms: _375  and  _378
REMARK  153  A    between atoms: _378  and  _379
REMARK  154  A    between atoms: _379  and  _380
REMARK  155  A    between atoms: _380  and  _381
REMARK  156  A    between atoms: _390  and  _392
REMARK  157  A    between atoms: _392  and  _393
REMARK  158  A    between atoms: _392  and  _395
REMARK  159  A    between atoms: _395  and  _396
REMARK  160  A    between atoms: _401  and  _403
REMARK  161  A    between atoms: _403  and  _404
REMARK  162  A    between atoms: _403  and  _406
REMARK  163  A    between atoms: _406  and  _407
REMARK  164  A    between atoms: _409  and  _411
REMARK  165  A    between atoms: _411  and  _412
REMARK  166  A    between atoms: _411  and  _414
REMARK  167  A    between atoms: _414  and  _415
REMARK  168  A    between atoms: _418  and  _420
REMARK  169  A    between atoms: _420  and  _421
REMARK  170  A    between atoms: _423  and  _425
REMARK  171  A    between atoms: _425  and  _426
REMARK  172  A    between atoms: _425  and  _428
REMARK  173  A    between atoms: _428  and  _429
REMARK  174  A    between atoms: _432  and  _434
REMARK  175  A    between atoms: _434  and  _435
REMARK  176  A    between atoms: _434  and  _437
REMARK  177  A    between atoms: _437  and  _438
REMARK  178  A    between atoms: _441  and  _443
REMARK  179  A    between atoms: _443  and  _444
REMARK  180  A    between atoms: _443  and  _446
REMARK  181  A    between atoms: _446  and  _447
REMARK  182  A    between atoms: _450  and  _452
REMARK  183  A    between atoms: _452  and  _453
REMARK  184  A    between atoms: _452  and  _455
REMARK  185  A    between atoms: _455  and  _456
REMARK  186  A    between atoms: _456  and  _457
REMARK  187  A    between atoms: _459  and  _461
REMARK  188  A    between atoms: _461  and  _462
REMARK  189  A    between atoms: _461  and  _464
REMARK  190  A    between atoms: _464  and  _465
REMARK  191  A    between atoms: _465  and  _466
REMARK  192  A    between atoms: _469  and  _471
REMARK  193  A    between atoms: _471  and  _472
REMARK  194  A    between atoms: _471  and  _474
REMARK  195  A    between atoms: _474  and  _475
REMARK  196  A    between atoms: _477  and  _479
REMARK  197  A    between atoms: _479  and  _480
REMARK  198  A    between atoms: _479  and  _482
REMARK  199  A    between atoms: _482  and  _483
REMARK  200  A    between atoms: _486  and  _488
REMARK  201  A    between atoms: _488  and  _489
REMARK  202  A    between atoms: _488  and  _491
REMARK  203  A    between atoms: _491  and  _492
REMARK  204  A    between atoms: _494  and  _496
REMARK  205  A    between atoms: _496  and  _497
REMARK  206  A    between atoms: _496  and  _499
REMARK  207  A    between atoms: _499  and  _500
REMARK  208  A    between atoms: _503  and  _505
REMARK  209  A    between atoms: _505  and  _506
REMARK  210  A    between atoms: _505  and  _508
REMARK  211  A    between atoms: _508  and  _509
REMARK  212  A    between atoms: _514  and  _515
REMARK  213  A    between atoms: _517  and  _519
REMARK  214  A    between atoms: _519  and  _520
REMARK  215  A    between atoms: _519  and  _522
REMARK  216  A    between atoms: _525  and  _527
REMARK  217  A    between atoms: _527  and  _528
REMARK  218  A    between atoms: _527  and  _530
REMARK  219  A    between atoms: _530  and  _531
REMARK  220  A    between atoms: _531  and  _532
REMARK  221  A    between atoms: _532  and  _533
REMARK  222  A    between atoms: _533  and  _534
REMARK  223  A    between atoms: _538  and  _540
REMARK  224  A    between atoms: _540  and  _541
REMARK  225  A    between atoms: _543  and  _545
REMARK  226  A    between atoms: _545  and  _546
REMARK  227  A    between atoms: _545  and  _548
REMARK  228  A    between atoms: _548  and  _549
REMARK  229  A    between atoms: _554  and  _555
REMARK  230  A    between atoms: _557  and  _559
REMARK  231  A    between atoms: _559  and  _560
REMARK  232  A    between atoms: _562  and  _564
REMARK  233  A    between atoms: _564  and  _565
REMARK  234  A    between atoms: _564  and  _567
REMARK  235  A    between atoms: _567  and  _568
REMARK                            x       y       z     vdW  Elec       q    Type
REMARK                         _______ _______ _______ _____ _____    ______ ____
ROOT
ATOM      1  C   GLU A   4     -14.244  13.791  16.514  0.00  0.00    +0.241 C 
ATOM      2  O   GLU A   4     -14.680  13.191  17.504  0.00  0.00    -0.273 OA
ATOM      3  N   SER A   5     -14.721  13.632  15.283  0.00  0.00    -0.295 N 
ATOM      4  H   SER A   5     -14.215  14.085  14.496  0.00  0.00    +0.150 HD
ENDROOT
BRANCH   3   5
ATOM      5  CA  SER A   5     -15.922  12.852  14.979  0.00  0.00    +0.178 C 
BRANCH   5   6
ATOM      6  C   SER A   5     -15.833  11.397  15.410  0.00  0.00    +0.243 C 
ATOM      7  O   SER A   5     -16.827  10.797  15.816  0.00  0.00    -0.273 OA
ATOM      8  N   THR A   6     -14.639  10.820  15.325  0.00  0.00    -0.295 N 
ATOM      9  H   THR A   6     -13.852  11.361  14.914  0.00  0.00    +0.150 HD
BRANCH   8  10
ATOM     10  CA  THR A   6     -14.388   9.457  15.786  0.00  0.00    +0.176 C 
BRANCH  10  11
ATOM     11  C   THR A   6     -14.740   9.312  17.267  0.00  0.00    +0.243 C 
ATOM     12  N   SER A   7     -14.298  10.288  18.054  0.00  0.00    -0.295 N 
ATOM     13  H   SER A   7     -13.781  11.082  17.626  0.00  0.00    +0.150 HD
ATOM     14  O   THR A   6     -15.411   8.360  17.683  0.00  0.00    -0.273 OA
BRANCH  12  15
ATOM     15  CA  SER A   7     -14.512  10.284  19.489  0.00  0.00    +0.178 C 
BRANCH  15  16
ATOM     16  C   SER A   7     -15.960  10.618  19.838  0.00  0.00    +0.243 C 
ATOM     17  O   SER A   7     -16.520  10.063  20.792  0.00  0.00    -0.273 OA
ATOM     18  N   ILE A   8     -16.574  11.505  19.056  0.00  0.00    -0.298 N 
ATOM     19  H   ILE A   8     -16.037  11.985  18.306  0.00  0.00    +0.150 HD
BRANCH  18  20
ATOM     20  CA  ILE A   8     -17.998  11.814  19.239  0.00  0.00    +0.137 C 
BRANCH  20  21
ATOM     21  CB  ILE A   8     -18.472  12.955  18.324  0.00  0.00    +0.026 C 
ATOM     22  CG2 ILE A   8     -19.984  13.148  18.454  0.00  0.00    +0.002 C 
BRANCH  21  23
ATOM     23  CG1 ILE A   8     -17.719  14.243  18.676  0.00  0.00    +0.002 C 
ATOM     24  CD1 ILE A   8     -18.029  15.431  17.759  0.00  0.00    +0.000 C 
ENDBRANCH  21  23
ENDBRANCH  20  21
BRANCH  20  25
ATOM     25  C   ILE A   8     -18.834  10.569  18.973  0.00  0.00    +0.227 C 
ATOM     26  O   ILE A   8     -19.731  10.250  19.756  0.00  0.00    -0.286 OA
ENDBRANCH  20  25
ENDBRANCH  18  20
ENDBRANCH  15  16
BRANCH  15  27
ATOM     27  CB  SER A   7     -13.521  11.251  20.156  0.00  0.00    +0.166 C 
BRANCH  27  28
ATOM     28  OG  SER A   7     -12.193  10.834  19.877  0.00  0.00    -0.380 OA
ATOM     29  H   SER A   7     -11.555  11.457  20.307  0.00  0.00    +0.211 HD
ENDBRANCH  27  28
ENDBRANCH  15  27
ENDBRANCH  12  15
ENDBRANCH  10  11
BRANCH  10  30
ATOM     30  CB  THR A   6     -12.895   9.159  15.606  0.00  0.00    +0.137 C 
ATOM     31  CG2 THR A   6     -12.584   8.852  14.166  0.00  0.00    +0.034 C 
BRANCH  30  32
ATOM     32  OG1 THR A   6     -12.168  10.325  15.993  0.00  0.00    -0.382 OA
ATOM     33  HG1 THR A   6     -11.198  10.158  15.886  0.00  0.00    +0.210 HD
ENDBRANCH  30  32
ENDBRANCH  10  30
ENDBRANCH   8  10
ENDBRANCH   5   6
BRANCH   5  34
ATOM     34  CB  SER A   5     -16.220  12.958  13.479  0.00  0.00    +0.166 C 
BRANCH  34  35
ATOM     35  OG  SER A   5     -15.119  12.456  12.740  0.00  0.00    -0.380 OA
ATOM     36  H   SER A   5     -14.967  11.508  12.980  0.00  0.00    +0.211 HD
ENDBRANCH  34  35
ENDBRANCH   5  34
ENDBRANCH   3   5
BRANCH   1  37
ATOM     37  CA  GLU A   4     -13.092  14.796  16.635  0.00  0.00    +0.149 C 
BRANCH  37  39
ATOM     38  C   MET A   3     -14.122  16.487  18.032  0.00  0.00    +0.241 C 
ATOM     39  N   GLU A   4     -13.167  15.581  17.855  0.00  0.00    -0.297 N 
ATOM     40  H   GLU A   4     -12.460  15.431  18.603  0.00  0.00    +0.150 HD
ATOM     41  O   MET A   3     -14.969  16.736  17.182  0.00  0.00    -0.273 OA
BRANCH  38  42
ATOM     42  CA  MET A   3     -14.149  17.179  19.377  0.00  0.00    +0.149 C 
BRANCH  42  45
ATOM     43  C   LEU A   2     -14.212  19.552  19.989  0.00  0.00    +0.241 C 
ATOM     44  O   LEU A   2     -13.247  19.470  20.766  0.00  0.00    -0.273 OA
ATOM     45  N   MET A   3     -14.602  18.564  19.185  0.00  0.00    -0.297 N 
ATOM     46  H   MET A   3     -15.246  18.779  18.398  0.00  0.00    +0.150 HD
BRANCH  43  47
ATOM     47  CA  LEU A   2     -15.055  20.815  19.932  0.00  0.00    +0.149 C 
BRANCH  47  49
ATOM     48  C   LEU A   1     -16.502  20.389  21.829  0.00  0.00    +0.238 C 
ATOM     49  N   LEU A   2     -15.498  21.077  21.294  0.00  0.00    -0.297 N 
ATOM     50  H   LEU A   2     -15.023  21.812  21.856  0.00  0.00    +0.150 HD
ATOM     51  O   LEU A   1     -17.231  19.633  21.183  0.00  0.00    -0.274 OA
BRANCH  48  52
ATOM     52  CA  LEU A   1     -16.731  20.596  23.307  0.00  0.00    +0.145 C 
BRANCH  52  53
ATOM     53  N   LEU A   1     -18.109  20.984  23.572  0.00  0.00    -0.238 NA
ATOM     54  H   LEU A   1     -18.862  20.272  23.487  0.00  0.00    +0.142 HD
ENDBRANCH  52  53
BRANCH  52  55
ATOM     55  CB  LEU A   1     -16.394  19.305  24.056  0.00  0.00    +0.026 C 
BRANCH  55  56
ATOM     56  CG  LEU A   1     -14.935  18.831  23.960  0.00  0.00    +0.002 C 
ATOM     57  CD2 LEU A   1     -13.930  19.756  24.665  0.00  0.00    +0.000 C 
ATOM     58  CD1 LEU A   1     -14.787  17.406  24.493  0.00  0.00    +0.000 C 
ENDBRANCH  55  56
ENDBRANCH  52  55
ENDBRANCH  48  52
ENDBRANCH  47  49
BRANCH  47  59
ATOM     59  CB  LEU A   2     -14.281  22.018  19.375  0.00  0.00    +0.029 C 
BRANCH  59  60
ATOM     60  CG  LEU A   2     -15.134  23.186  18.829  0.00  0.00    +0.002 C 
ATOM     61  CD2 LEU A   2     -16.173  23.697  19.834  0.00  0.00    +0.000 C 
ATOM     62  CD1 LEU A   2     -15.799  22.827  17.487  0.00  0.00    +0.000 C 
ENDBRANCH  59  60
ENDBRANCH  47  59
ENDBRANCH  43  47
ENDBRANCH  42  45
BRANCH  42  63
ATOM     63  CB  MET A   3     -15.124  16.452  20.330  0.00  0.00    +0.041 C 
BRANCH  63  64
ATOM     64  CG  MET A   3     -14.719  14.989  20.667  0.00  0.00    +0.060 C 
BRANCH  64  65
ATOM     65  SD  MET A   3     -15.843  14.191  21.837  0.00  0.00    -0.139 S 
ATOM     66  CE  MET A   3     -14.765  13.893  23.250  0.00  0.00    +0.069 C 
ENDBRANCH  64  65
ENDBRANCH  63  64
ENDBRANCH  42  63
ENDBRANCH  38  42
ENDBRANCH  37  39
BRANCH  37  67
ATOM     67  CB  GLU A   4     -11.722  14.134  16.552  0.00  0.00    +0.041 C 
BRANCH  67  68
ATOM     68  CG  GLU A   4     -10.629  15.197  16.454  0.00  0.00    +0.116 C 
BRANCH  68  69
ATOM     69  CD  GLU A   4      -9.219  14.634  16.570  0.00  0.00    +0.365 C 
ATOM     70  OE2 GLU A   4      -9.016  13.560  17.215  0.00  0.00    -0.246 OA
ATOM     71  OE1 GLU A   4      -8.309  15.302  16.029  0.00  0.00    -0.246 OA
ENDBRANCH  68  69
ENDBRANCH  67  68
ENDBRANCH  37  67
ENDBRANCH   1  37
TORSDOF 34
REMARK  Name = ../refined-set-2016/3fv1/3fv1_pocket.pdb
REMARK  235 active torsions:
REMARK  status: ('A' for Active; 'I' for Inactive)
REMARK    1  A    between atoms: _1  and  _3
REMARK    2  A    between atoms: _3  and  _4
REMARK    3  A    between atoms: _3  and  _6
REMARK    4  A    between atoms: _6  and  _7
REMARK    5  A    between atoms: _10  and  _12
REMARK    6  A    between atoms: _12  and  _13
REMARK    7  A    between atoms: _12  and  _15
REMARK    8  A    between atoms: _15  and  _16
REMARK    9  A    between atoms: _19  and  _21
REMARK   10  A    between atoms: _21  and  _22
REMARK   11  A    between atoms: _21  and  _24
REMARK   12  A    between atoms: _24  and  _25
REMARK   13  A    between atoms: _25  and  _26
REMARK   14  A    between atoms: _29  and  _31
REMARK   15  A    between atoms: _31  and  _32
REMARK   16  A    between atoms: _31  and  _34
REMARK   17  A    between atoms: _34  and  _35
REMARK   18  A    between atoms: _35  and  _36
REMARK   19  A    between atoms: _40  and  _41
REMARK   20  A    between atoms: _46  and  _48
REMARK   21  A    between atoms: _48  and  _49
REMARK   22  A    between atoms: _48  and  _51
REMARK   23  A    between atoms: _51  and  _52
REMARK   24  A    between atoms: _57  and  _58
REMARK   25  A    between atoms: _60  and  _62
REMARK   26  A    between atoms: _62  and  _63
REMARK   27  A    between atoms: _62  and  _65
REMARK   28  A    between atoms: _67  and  _69
REMARK   29  A    between atoms: _69  and  _70
REMARK   30  A    between atoms: _69  and  _72
REMARK   31  A    between atoms: _72  and  _73
REMARK   32  A    between atoms: _73  and  _74
REMARK   33  A    between atoms: _74  and  _75
REMARK   34  A    between atoms: _75  and  _76
REMARK   35  A    between atoms: _80  and  _82
REMARK   36  A    between atoms: _82  and  _83
REMARK   37  A    between atoms: _82  and  _85
REMARK   38  A    between atoms: _85  and  _86
REMARK   39  A    between atoms: _91  and  _92
REMARK   40  A    between atoms: _94  and  _96
REMARK   41  A    between atoms: _96  and  _97
REMARK   42  A    between atoms: _99  and  _101
REMARK   43  A    between atoms: _101  and  _102
REMARK   44  A    between atoms: _105  and  _107
REMARK   45  A    between atoms: _107  and  _108
REMARK   46  A    between atoms: _107  and  _110
REMARK   47  A    between atoms: _110  and  _111
REMARK   48  A    between atoms: _121  and  _123
REMARK   49  A    between atoms: _123  and  _124
REMARK   50  A    between atoms: _126  and  _128
REMARK   51  A    between atoms: _128  and  _129
REMARK   52  A    between atoms: _128  and  _131
REMARK   53  A    between atoms: _131  and  _132
REMARK   54  A    between atoms: _132  and  _133
REMARK   55  A    between atoms: _135  and  _137
REMARK   56  A    between atoms: _137  and  _138
REMARK   57  A    between atoms: _137  and  _140
REMARK   58  A    between atoms: _143  and  _145
REMARK   59  A    between atoms: _145  and  _146
REMARK   60  A    between atoms: _150  and  _151
REMARK   61  A    between atoms: _156  and  _158
REMARK   62  A    between atoms: _158  and  _159
REMARK   63  A    between atoms: _158  and  _161
REMARK   64  A    between atoms: _161  and  _162
REMARK   65  A    between atoms: _165  and  _167
REMARK   66  A    between atoms: _167  and  _168
REMARK   67  A    between atoms: _167  and  _170
REMARK   68  A    between atoms: _170  and  _171
REMARK   69  A    between atoms: _174  and  _176
REMARK   70  A    between atoms: _176  and  _177
REMARK   71  A    between atoms: _176  and  _179
REMARK   72  A    between atoms: _179  and  _180
REMARK   73  A    between atoms: _183  and  _185
REMARK   74  A    between atoms: _185  and  _186
REMARK   75  A    between atoms: _185  and  _188
REMARK   76  A    between atoms: _188  and  _189
REMARK   77  A    between atoms: _192  and  _194
REMARK   78  A    between atoms: _194  and  _195
REMARK   79  A    between atoms: _194  and  _197
REMARK   80  A    between atoms: _197  and  _198
REMARK   81  A    between atoms: _198  and  _199
REMARK   82  A    between atoms: _199  and  _200
REMARK   83  A    between atoms: _209  and  _211
REMARK   84  A    between atoms: _211  and  _212
REMARK   85  A    between atoms: _211  and  _214
REMARK   86  A    between atoms: _214  and  _215
REMARK   87  A    between atoms: _221  and  _223
REMARK   88  A    between atoms: _223  and  _224
REMARK   89  A    between atoms: _223  and  _226
REMARK   90  A    between atoms: _226  and  _227
REMARK   91  A    between atoms: _230  and  _232
REMARK   92  A    between atoms: _232  and  _233
REMARK   93  A    between atoms: _235  and  _237
REMARK   94  A    between atoms: _237  and  _238
REMARK   95  A    between atoms: _237  and  _240
REMARK   96  A    between atoms: _240  and  _241
REMARK   97  A    between atoms: _244  and  _246
REMARK   98  A    between atoms: _246  and  _247
REMARK   99  A    between atoms: _246  and  _249
REMARK  100  A    between atoms: _249  and  _250
REMARK  101  A    between atoms: _252  and  _254
REMARK  102  A    between atoms: _254  and  _255
REMARK  103  A    between atoms: _254  and  _257
REMARK  104  A    between atoms: _257  and  _258
REMARK  105  A    between atoms: _261  and  _263
REMARK  106  A    between atoms: _263  and  _264
REMARK  107  A    between atoms: _267  and  _269
REMARK  108  A    between atoms: _269  and  _270
REMARK  109  A    between atoms: _269  and  _272
REMARK  110  A    between atoms: _275  and  _277
REMARK  111  A    between atoms: _277  and  _278
REMARK  112  A    between atoms: _277  and  _280
REMARK  113  A    between atoms: _280  and  _281
REMARK  114  A    between atoms: _281  and  _282
REMARK  115  A    between atoms: _282  and  _283
REMARK  116  A    between atoms: _292  and  _294
REMARK  117  A    between atoms: _294  and  _295
REMARK  118  A    between atoms: _294  and  _297
REMARK  119  A    between atoms: _297  and  _298
REMARK  120  A    between atoms: _301  and  _303
REMARK  121  A    between atoms: _303  and  _304
REMARK  122  A    between atoms: _306  and  _308
REMARK  123  A    between atoms: _308  and  _309
REMARK  124  A    between atoms: _308  and  _311
REMARK  125  A    between atoms: _311  and  _312
REMARK  126  A    between atoms: _314  and  _316
REMARK  127  A    between atoms: _316  and  _317
REMARK  128  A    between atoms: _316  and  _319
REMARK  129  A    between atoms: _319  and  _320
REMARK  130  A    between atoms: _323  and  _325
REMARK  131  A    between atoms: _325  and  _326
REMARK  132  A    between atoms: _325  and  _328
REMARK  133  A    between atoms: _328  and  _329
REMARK  134  A    between atoms: _329  and  _330
REMARK  135  A    between atoms: _332  and  _334
REMARK  136  A    between atoms: _334  and  _335
REMARK  137  A    between atoms: _334  and  _337
REMARK  138  A    between atoms: _337  and  _338
REMARK  139  A    between atoms: _341  and  _343
REMARK  140  A    between atoms: _343  and  _344
REMARK  141  A    between atoms: _343  and  _346
REMARK  142  A    between atoms: _346  and  _347
REMARK  143  A    between atoms: _353  and  _355
REMARK  144  A    between atoms: _355  and  _356
REMARK  145  A    between atoms: _355  and  _358
REMARK  146  A    between atoms: _358  and  _359
REMARK  147  A    between atoms: _365  and  _367
REMARK  148  A    between atoms: _367  and  _368
REMARK  149  A    between atoms: _367  and  _370
REMARK  150  A    between atoms: _373  and  _375
REMARK  151  A    between atoms: _375  and  _376
REMARK  152  A    between atoms: _375  and  _378
REMARK  153  A    between atoms: _378  and  _379
REMARK  154  A    between atoms: _379  and  _380
REMARK  155  A    between atoms: _380  and  _381
REMARK  156  A    between atoms: _390  and  _392
REMARK  157  A    between atoms: _392  and  _393
REMARK  158  A    between atoms: _392  and  _395
REMARK  159  A    between atoms: _395  and  _396
REMARK  160  A    between atoms: _401  and  _403
REMARK  161  A    between atoms: _403  and  _404
REMARK  162  A    between atoms: _403  and  _406
REMARK  163  A    between atoms: _406  and  _407
REMARK  164  A    between atoms: _409  and  _411
REMARK  165  A    between atoms: _411  and  _412
REMARK  166  A    between atoms: _411  and  _414
REMARK  167  A    between atoms: _414  and  _415
REMARK  168  A    between atoms: _418  and  _420
REMARK  169  A    between atoms: _420  and  _421
REMARK  170  A    between atoms: _423  and  _425
REMARK  171  A    between atoms: _425  and  _426
REMARK  172  A    between atoms: _425  and  _428
REMARK  173  A    between atoms: _428  and  _429
REMARK  174  A    between atoms: _432  and  _434
REMARK  175  A    between atoms: _434  and  _435
REMARK  176  A    between atoms: _434  and  _437
REMARK  177  A    between atoms: _437  and  _438
REMARK  178  A    between atoms: _441  and  _443
REMARK  179  A    between atoms: _443  and  _444
REMARK  180  A    between atoms: _443  and  _446
REMARK  181  A    between atoms: _446  and  _447
REMARK  182  A    between atoms: _450  and  _452
REMARK  183  A    between atoms: _452  and  _453
REMARK  184  A    between atoms: _452  and  _455
REMARK  185  A    between atoms: _455  and  _456
REMARK  186  A    between atoms: _456  and  _457
REMARK  187  A    between atoms: _459  and  _461
REMARK  188  A    between atoms: _461  and  _462
REMARK  189  A    between atoms: _461  and  _464
REMARK  190  A    between atoms: _464  and  _465
REMARK  191  A    between atoms: _465  and  _466
REMARK  192  A    between atoms: _469  and  _471
REMARK  193  A    between atoms: _471  and  _472
REMARK  194  A    between atoms: _471  and  _474
REMARK  195  A    between atoms: _474  and  _475
REMARK  196  A    between atoms: _477  and  _479
REMARK  197  A    between atoms: _479  and  _480
REMARK  198  A    between atoms: _479  and  _482
REMARK  199  A    between atoms: _482  and  _483
REMARK  200  A    between atoms: _486  and  _488
REMARK  201  A    between atoms: _488  and  _489
REMARK  202  A    between atoms: _488  and  _491
REMARK  203  A    between atoms: _491  and  _492
REMARK  204  A    between atoms: _494  and  _496
REMARK  205  A    between atoms: _496  and  _497
REMARK  206  A    between atoms: _496  and  _499
REMARK  207  A    between atoms: _499  and  _500
REMARK  208  A    between atoms: _503  and  _505
REMARK  209  A    between atoms: _505  and  _506
REMARK  210  A    between atoms: _505  and  _508
REMARK  211  A    between atoms: _508  and  _509
REMARK  212  A    between atoms: _514  and  _515
REMARK  213  A    between atoms: _517  and  _519
REMARK  214  A    between atoms: _519  and  _520
REMARK  215  A    between atoms: _519  and  _522
REMARK  216  A    between atoms: _525  and  _527
REMARK  217  A    between atoms: _527  and  _528
REMARK  218  A    between atoms: _527  and  _530
REMARK  219  A    between atoms: _530  and  _531
REMARK  220  A    between atoms: _531  and  _532
REMARK  221  A    between atoms: _532  and  _533
REMARK  222  A    between atoms: _533  and  _534
REMARK  223  A    between atoms: _538  and  _540
REMARK  224  A    between atoms: _540  and  _541
REMARK  225  A    between atoms: _543  and  _545
REMARK  226  A    between atoms: _545  and  _546
REMARK  227  A    between atoms: _545  and  _548
REMARK  228  A    between atoms: _548  and  _549
REMARK  229  A    between atoms: _554  and  _555
REMARK  230  A    between atoms: _557  and  _559
REMARK  231  A    between atoms: _559  and  _560
REMARK  232  A    between atoms: _562  and  _564
REMARK  233  A    between atoms: _564  and  _565
REMARK  234  A    between atoms: _564  and  _567
REMARK  235  A    between atoms: _567  and  _568
REMARK                            x       y       z     vdW  Elec       q    Type
REMARK                         _______ _______ _______ _____ _____    ______ ____
ROOT
ATOM      1  CA  TYR A   1     -17.799   6.581  20.439  0.00  0.00    +0.149 C 
ENDROOT
BRANCH   1   2
ATOM      2  C   TYR A   1     -18.648   6.972  21.648  0.00  0.00    +0.239 C 
ATOM      3  O   TYR A   1     -19.420   6.153  22.171  0.00  0.00    -0.274 OA
ATOM      4  N   VAL A   2     -18.529   8.227  22.079  0.00  0.00    -0.298 N 
ATOM      5  H   VAL A   2     -17.949   8.906  21.546  0.00  0.00    +0.150 HD
BRANCH   4   6
ATOM      6  CA  VAL A   2     -19.219   8.657  23.312  0.00  0.00    +0.137 C 
BRANCH   6   7
ATOM      7  CB  VAL A   2     -18.655   9.981  23.909  0.00  0.00    +0.026 C 
ATOM      8  CG2 VAL A   2     -17.174   9.854  24.259  0.00  0.00    +0.002 C 
ATOM      9  CG1 VAL A   2     -18.871  11.150  22.977  0.00  0.00    +0.002 C 
ENDBRANCH   6   7
BRANCH   6  10
ATOM     10  C   VAL A   2     -20.737   8.724  23.153  0.00  0.00    +0.227 C 
ATOM     11  O   VAL A   2     -21.473   8.360  24.073  0.00  0.00    -0.286 OA
ENDBRANCH   6  10
ENDBRANCH   4   6
ENDBRANCH   1   2
BRANCH   1  12
ATOM     12  N   TYR A   1     -17.982   7.491  19.312  0.00  0.00    -0.238 NA
ATOM     13  H   TYR A   1     -17.172   8.038  18.957  0.00  0.00    +0.142 HD
ENDBRANCH   1  12
BRANCH   1  14
ATOM     14  CB  TYR A   1     -16.319   6.507  20.823  0.00  0.00    +0.053 C 
BRANCH  14  15
ATOM     15  CG  TYR A   1     -16.035   5.647  22.039  0.00  0.00    -0.020 A 
ATOM     16  CD2 TYR A   1     -15.757   6.240  23.272  0.00  0.00    -0.001 A 
ATOM     17  CE2 TYR A   1     -15.483   5.481  24.397  0.00  0.00    +0.036 A 
ATOM     18  CZ  TYR A   1     -15.474   4.112  24.309  0.00  0.00    +0.134 A 
ATOM     19  CE1 TYR A   1     -15.726   3.473  23.092  0.00  0.00    +0.036 A 
ATOM     20  CD1 TYR A   1     -16.001   4.260  21.950  0.00  0.00    -0.001 A 
BRANCH  18  21
ATOM     21  OH  TYR A   1     -15.175   3.367  25.443  0.00  0.00    -0.506 OA
ATOM     22  HH  TYR A   1     -14.268   3.602  25.761  0.00  0.00    +0.292 HD
ENDBRANCH  18  21
ENDBRANCH  14  15
ENDBRANCH   1  14
TORSDOF 8
REMARK  Name = ../refined-set-2016/3fv1/3fv1_pocket.pdb
REMARK  235 active torsions:
REMARK  status: ('A' for Active; 'I' for Inactive)
REMARK    1  A    between atoms: _1  and  _3
REMARK    2  A    between atoms: _3  and  _4
REMARK    3  A    between atoms: _3  and  _6
REMARK    4  A    between atoms: _6  and  _7
REMARK    5  A    between atoms: _10  and  _12
REMARK    6  A    between atoms: _12  and  _13
REMARK    7  A    between atoms: _12  and  _15
REMARK    8  A    between atoms: _15  and  _16
REMARK    9  A    between atoms: _19  and  _21
REMARK   10  A    between atoms: _21  and  _22
REMARK   11  A    between atoms: _21  and  _24
REMARK   12  A    between atoms: _24  and  _25
REMARK   13  A    between atoms: _25  and  _26
REMARK   14  A    between atoms: _29  and  _31
REMARK   15  A    between atoms: _31  and  _32
REMARK   16  A    between atoms: _31  and  _34
REMARK   17  A    between atoms: _34  and  _35
REMARK   18  A    between atoms: _35  and  _36
REMARK   19  A    between atoms: _40  and  _41
REMARK   20  A    between atoms: _46  and  _48
REMARK   21  A    between atoms: _48  and  _49
REMARK   22  A    between atoms: _48  and  _51
REMARK   23  A    between atoms: _51  and  _52
REMARK   24  A    between atoms: _57  and  _58
REMARK   25  A    between atoms: _60  and  _62
REMARK   26  A    between atoms: _62  and  _63
REMARK   27  A    between atoms: _62  and  _65
REMARK   28  A    between atoms: _67  and  _69
REMARK   29  A    between atoms: _69  and  _70
REMARK   30  A    between atoms: _69  and  _72
REMARK   31  A    between atoms: _72  and  _73
REMARK   32  A    between atoms: _73  and  _74
REMARK   33  A    between atoms: _74  and  _75
REMARK   34  A    between atoms: _75  and  _76
REMARK   35  A    between atoms: _80  and  _82
REMARK   36  A    between atoms: _82  and  _83
REMARK   37  A    between atoms: _82  and  _85
REMARK   38  A    between atoms: _85  and  _86
REMARK   39  A    between atoms: _91  and  _92
REMARK   40  A    between atoms: _94  and  _96
REMARK   41  A    between atoms: _96  and  _97
REMARK   42  A    between atoms: _99  and  _101
REMARK   43  A    between atoms: _101  and  _102
REMARK   44  A    between atoms: _105  and  _107
REMARK   45  A    between atoms: _107  and  _108
REMARK   46  A    between atoms: _107  and  _110
REMARK   47  A    between atoms: _110  and  _111
REMARK   48  A    between atoms: _121  and  _123
REMARK   49  A    between atoms: _123  and  _124
REMARK   50  A    between atoms: _126  and  _128
REMARK   51  A    between atoms: _128  and  _129
REMARK   52  A    between atoms: _128  and  _131
REMARK   53  A    between atoms: _131  and  _132
REMARK   54  A    between atoms: _132  and  _133
REMARK   55  A    between atoms: _135  and  _137
REMARK   56  A    between atoms: _137  and  _138
REMARK   57  A    between atoms: _137  and  _140
REMARK   58  A    between atoms: _143  and  _145
REMARK   59  A    between atoms: _145  and  _146
REMARK   60  A    between atoms: _150  and  _151
REMARK   61  A    between atoms: _156  and  _158
REMARK   62  A    between atoms: _158  and  _159
REMARK   63  A    between atoms: _158  and  _161
REMARK   64  A    between atoms: _161  and  _162
REMARK   65  A    between atoms: _165  and  _167
REMARK   66  A    between atoms: _167  and  _168
REMARK   67  A    between atoms: _167  and  _170
REMARK   68  A    between atoms: _170  and  _171
REMARK   69  A    between atoms: _174  and  _176
REMARK   70  A    between atoms: _176  and  _177
REMARK   71  A    between atoms: _176  and  _179
REMARK   72  A    between atoms: _179  and  _180
REMARK   73  A    between atoms: _183  and  _185
REMARK   74  A    between atoms: _185  and  _186
REMARK   75  A    between atoms: _185  and  _188
REMARK   76  A    between atoms: _188  and  _189
REMARK   77  A    between atoms: _192  and  _194
REMARK   78  A    between atoms: _194  and  _195
REMARK   79  A    between atoms: _194  and  _197
REMARK   80  A    between atoms: _197  and  _198
REMARK   81  A    between atoms: _198  and  _199
REMARK   82  A    between atoms: _199  and  _200
REMARK   83  A    between atoms: _209  and  _211
REMARK   84  A    between atoms: _211  and  _212
REMARK   85  A    between atoms: _211  and  _214
REMARK   86  A    between atoms: _214  and  _215
REMARK   87  A    between atoms: _221  and  _223
REMARK   88  A    between atoms: _223  and  _224
REMARK   89  A    between atoms: _223  and  _226
REMARK   90  A    between atoms: _226  and  _227
REMARK   91  A    between atoms: _230  and  _232
REMARK   92  A    between atoms: _232  and  _233
REMARK   93  A    between atoms: _235  and  _237
REMARK   94  A    between atoms: _237  and  _238
REMARK   95  A    between atoms: _237  and  _240
REMARK   96  A    between atoms: _240  and  _241
REMARK   97  A    between atoms: _244  and  _246
REMARK   98  A    between atoms: _246  and  _247
REMARK   99  A    between atoms: _246  and  _249
REMARK  100  A    between atoms: _249  and  _250
REMARK  101  A    between atoms: _252  and  _254
REMARK  102  A    between atoms: _254  and  _255
REMARK  103  A    between atoms: _254  and  _257
REMARK  104  A    between atoms: _257  and  _258
REMARK  105  A    between atoms: _261  and  _263
REMARK  106  A    between atoms: _263  and  _264
REMARK  107  A    between atoms: _267  and  _269
REMARK  108  A    between atoms: _269  and  _270
REMARK  109  A    between atoms: _269  and  _272
REMARK  110  A    between atoms: _275  and  _277
REMARK  111  A    between atoms: _277  and  _278
REMARK  112  A    between atoms: _277  and  _280
REMARK  113  A    between atoms: _280  and  _281
REMARK  114  A    between atoms: _281  and  _282
REMARK  115  A    between atoms: _282  and  _283
REMARK  116  A    between atoms: _292  and  _294
REMARK  117  A    between atoms: _294  and  _295
REMARK  118  A    between atoms: _294  and  _297
REMARK  119  A    between atoms: _297  and  _298
REMARK  120  A    between atoms: _301  and  _303
REMARK  121  A    between atoms: _303  and  _304
REMARK  122  A    between atoms: _306  and  _308
REMARK  123  A    between atoms: _308  and  _309
REMARK  124  A    between atoms: _308  and  _311
REMARK  125  A    between atoms: _311  and  _312
REMARK  126  A    between atoms: _314  and  _316
REMARK  127  A    between atoms: _316  and  _317
REMARK  128  A    between atoms: _316  and  _319
REMARK  129  A    between atoms: _319  and  _320
REMARK  130  A    between atoms: _323  and  _325
REMARK  131  A    between atoms: _325  and  _326
REMARK  132  A    between atoms: _325  and  _328
REMARK  133  A    between atoms: _328  and  _329
REMARK  134  A    between atoms: _329  and  _330
REMARK  135  A    between atoms: _332  and  _334
REMARK  136  A    between atoms: _334  and  _335
REMARK  137  A    between atoms: _334  and  _337
REMARK  138  A    between atoms: _337  and  _338
REMARK  139  A    between atoms: _341  and  _343
REMARK  140  A    between atoms: _343  and  _344
REMARK  141  A    between atoms: _343  and  _346
REMARK  142  A    between atoms: _346  and  _347
REMARK  143  A    between atoms: _353  and  _355
REMARK  144  A    between atoms: _355  and  _356
REMARK  145  A    between atoms: _355  and  _358
REMARK  146  A    between atoms: _358  and  _359
REMARK  147  A    between atoms: _365  and  _367
REMARK  148  A    between atoms: _367  and  _368
REMARK  149  A    between atoms: _367  and  _370
REMARK  150  A    between atoms: _373  and  _375
REMARK  151  A    between atoms: _375  and  _376
REMARK  152  A    between atoms: _375  and  _378
REMARK  153  A    between atoms: _378  and  _379
REMARK  154  A    between atoms: _379  and  _380
REMARK  155  A    between atoms: _380  and  _381
REMARK  156  A    between atoms: _390  and  _392
REMARK  157  A    between atoms: _392  and  _393
REMARK  158  A    between atoms: _392  and  _395
REMARK  159  A    between atoms: _395  and  _396
REMARK  160  A    between atoms: _401  and  _403
REMARK  161  A    between atoms: _403  and  _404
REMARK  162  A    between atoms: _403  and  _406
REMARK  163  A    between atoms: _406  and  _407
REMARK  164  A    between atoms: _409  and  _411
REMARK  165  A    between atoms: _411  and  _412
REMARK  166  A    between atoms: _411  and  _414
REMARK  167  A    between atoms: _414  and  _415
REMARK  168  A    between atoms: _418  and  _420
REMARK  169  A    between atoms: _420  and  _421
REMARK  170  A    between atoms: _423  and  _425
REMARK  171  A    between atoms: _425  and  _426
REMARK  172  A    between atoms: _425  and  _428
REMARK  173  A    between atoms: _428  and  _429
REMARK  174  A    between atoms: _432  and  _434
REMARK  175  A    between atoms: _434  and  _435
REMARK  176  A    between atoms: _434  and  _437
REMARK  177  A    between atoms: _437  and  _438
REMARK  178  A    between atoms: _441  and  _443
REMARK  179  A    between atoms: _443  and  _444
REMARK  180  A    between atoms: _443  and  _446
REMARK  181  A    between atoms: _446  and  _447
REMARK  182  A    between atoms: _450  and  _452
REMARK  183  A    between atoms: _452  and  _453
REMARK  184  A    between atoms: _452  and  _455
REMARK  185  A    between atoms: _455  and  _456
REMARK  186  A    between atoms: _456  and  _457
REMARK  187  A    between atoms: _459  and  _461
REMARK  188  A    between atoms: _461  and  _462
REMARK  189  A    between atoms: _461  and  _464
REMARK  190  A    between atoms: _464  and  _465
REMARK  191  A    between atoms: _465  and  _466
REMARK  192  A    between atoms: _469  and  _471
REMARK  193  A    between atoms: _471  and  _472
REMARK  194  A    between atoms: _471  and  _474
REMARK  195  A    between atoms: _474  and  _475
REMARK  196  A    between atoms: _477  and  _479
REMARK  197  A    between atoms: _479  and  _480
REMARK  198  A    between atoms: _479  and  _482
REMARK  199  A    between atoms: _482  and  _483
REMARK  200  A    between atoms: _486  and  _488
REMARK  201  A    between atoms: _488  and  _489
REMARK  202  A    between atoms: _488  and  _491
REMARK  203  A    between atoms: _491  and  _492
REMARK  204  A    between atoms: _494  and  _496
REMARK  205  A    between atoms: _496  and  _497
REMARK  206  A    between atoms: _496  and  _499
REMARK  207  A    between atoms: _499  and  _500
REMARK  208  A    between atoms: _503  and  _505
REMARK  209  A    between atoms: _505  and  _506
REMARK  210  A    between atoms: _505  and  _508
REMARK  211  A    between atoms: _508  and  _509
REMARK  212  A    between atoms: _514  and  _515
REMARK  213  A    between atoms: _517  and  _519
REMARK  214  A    between atoms: _519  and  _520
REMARK  215  A    between atoms: _519  and  _522
REMARK  216  A    between atoms: _525  and  _527
REMARK  217  A    between atoms: _527  and  _528
REMARK  218  A    between atoms: _527  and  _530
REMARK  219  A    between atoms: _530  and  _531
REMARK  220  A    between atoms: _531  and  _532
REMARK  221  A    between atoms: _532  and  _533
REMARK  222  A    between atoms: _533  and  _534
REMARK  223  A    between atoms: _538  and  _540
REMARK  224  A    between atoms: _540  and  _541
REMARK  225  A    between atoms: _543  and  _545
REMARK  226  A    between atoms: _545  and  _546
REMARK  227  A    between atoms: _545  and  _548
REMARK  228  A    between atoms: _548  and  _549
REMARK  229  A    between atoms: _554  and  _555
REMARK  230  A    between atoms: _557  and  _559
REMARK  231  A    between atoms: _559  and  _560
REMARK  232  A    between atoms: _562  and  _564
REMARK  233  A    between atoms: _564  and  _565
REMARK  234  A    between atoms: _564  and  _567
REMARK  235  A    between atoms: _567  and  _568
REMARK                            x       y       z     vdW  Elec       q    Type
REMARK                         _______ _______ _______ _____ _____    ______ ____
ROOT
ATOM      1  C   GLY A   2      -5.657  11.381  10.441  0.00  0.00    +0.243 C 
ATOM      2  N   TYR A   3      -5.687  10.232  11.118  0.00  0.00    -0.297 N 
ATOM      3  H   TYR A   3      -6.446   9.551  10.914  0.00  0.00    +0.150 HD
ATOM      4  O   GLY A   2      -4.927  12.342  10.737  0.00  0.00    -0.273 OA
ENDROOT
BRANCH   1   5
ATOM      5  CA  GLY A   2      -6.591  11.464   9.262  0.00  0.00    +0.176 C 
BRANCH   5   7
ATOM      6  C   LYS A   1      -8.015  13.239   8.482  0.00  0.00    +0.238 C 
ATOM      7  N   GLY A   2      -6.809  12.841   8.849  0.00  0.00    -0.296 N 
ATOM      8  H   GLY A   2      -6.016  13.513   8.842  0.00  0.00    +0.150 HD
ATOM      9  O   LYS A   1      -9.003  12.503   8.515  0.00  0.00    -0.274 OA
BRANCH   6  10
ATOM     10  CA  LYS A   1      -8.122  14.671   8.004  0.00  0.00    +0.145 C 
BRANCH  10  11
ATOM     11  N   LYS A   1      -9.536  15.005   7.838  0.00  0.00    -0.238 NA
ATOM     12  H   LYS A   1     -10.252  14.458   8.358  0.00  0.00    +0.142 HD
ENDBRANCH  10  11
BRANCH  10  13
ATOM     13  CB  LYS A   1      -7.443  15.621   8.991  0.00  0.00    +0.026 C 
BRANCH  13  14
ATOM     14  CG  LYS A   1      -8.216  15.839  10.245  0.00  0.00    -0.000 C 
BRANCH  14  15
ATOM     15  CD  LYS A   1      -7.994  17.233  10.784  0.00  0.00    -0.024 C 
BRANCH  15  16
ATOM     16  CE  LYS A   1      -8.637  17.359  12.145  0.00  0.00    -0.086 C 
BRANCH  16  17
ATOM     17  NZ  LYS A   1      -8.508  18.715  12.695  0.00  0.00    +0.380 N 
ATOM     18  HZ1 LYS A   1      -8.964  18.754  13.629  0.00  0.00    -0.089 HD
ATOM     19  HZ2 LYS A   1      -7.501  18.955  12.789  0.00  0.00    -0.089 HD
ATOM     20  HZ3 LYS A   1      -8.969  19.393  12.055  0.00  0.00    -0.089 HD
ENDBRANCH  16  17
ENDBRANCH  15  16
ENDBRANCH  14  15
ENDBRANCH  13  14
ENDBRANCH  10  13
ENDBRANCH   6  10
ENDBRANCH   5   7
ENDBRANCH   1   5
BRANCH   2  21
ATOM     21  CA  TYR A   3      -4.690   9.893  12.139  0.00  0.00    +0.153 C 
BRANCH  21  22
ATOM     22  C   TYR A   3      -3.571   9.078  11.515  0.00  0.00    +0.241 C 
ATOM     23  N   GLY A   4      -2.335   9.381  11.892  0.00  0.00    -0.296 N 
ATOM     24  H   GLY A   4      -2.170  10.209  12.500  0.00  0.00    +0.150 HD
ATOM     25  O   TYR A   3      -3.829   8.207  10.697  0.00  0.00    -0.273 OA
BRANCH  23  26
ATOM     26  CA  GLY A   4      -1.194   8.555  11.457  0.00  0.00    +0.163 C 
BRANCH  26  27
ATOM     27  C   GLY A   4      -0.268   8.208  12.603  0.00  0.00    +0.229 C 
ATOM     28  O   GLY A   4      -0.335   8.792  13.684  0.00  0.00    -0.286 OA
ENDBRANCH  26  27
ENDBRANCH  23  26
ENDBRANCH  21  22
BRANCH  21  29
ATOM     29  CB  TYR A   3      -5.297   9.021  13.234  0.00  0.00    +0.055 C 
BRANCH  29  30
ATOM     30  CG  TYR A   3      -6.424   9.628  14.028  0.00  0.00    -0.020 A 
ATOM     31  CD2 TYR A   3      -6.377  10.947  14.497  0.00  0.00    -0.001 A 
ATOM     32  CE2 TYR A   3      -7.423  11.484  15.249  0.00  0.00    +0.036 A 
ATOM     33  CZ  TYR A   3      -8.517  10.668  15.553  0.00  0.00    +0.134 A 
ATOM     34  CE1 TYR A   3      -8.560   9.360  15.116  0.00  0.00    +0.036 A 
ATOM     35  CD1 TYR A   3      -7.524   8.851  14.352  0.00  0.00    -0.001 A 
BRANCH  33  36
ATOM     36  OH  TYR A   3      -9.557  11.140  16.316  0.00  0.00    -0.506 OA
ATOM     37  HH  TYR A   3      -9.388  12.086  16.553  0.00  0.00    +0.292 HD
ENDBRANCH  33  36
ENDBRANCH  29  30
ENDBRANCH  21  29
ENDBRANCH   2  21
TORSDOF 16
REMARK  Name = ../refined-set-2016/3fv1/3fv1_pocket.pdb
REMARK  235 active torsions:
REMARK  status: ('A' for Active; 'I' for Inactive)
REMARK    1  A    between atoms: _1  and  _3
REMARK    2  A    between atoms: _3  and  _4
REMARK    3  A    between atoms: _3  and  _6
REMARK    4  A    between atoms: _6  and  _7
REMARK    5  A    between atoms: _10  and  _12
REMARK    6  A    between atoms: _12  and  _13
REMARK    7  A    between atoms: _12  and  _15
REMARK    8  A    between atoms: _15  and  _16
REMARK    9  A    between atoms: _19  and  _21
REMARK   10  A    between atoms: _21  and  _22
REMARK   11  A    between atoms: _21  and  _24
REMARK   12  A    between atoms: _24  and  _25
REMARK   13  A    between atoms: _25  and  _26
REMARK   14  A    between atoms: _29  and  _31
REMARK   15  A    between atoms: _31  and  _32
REMARK   16  A    between atoms: _31  and  _34
REMARK   17  A    between atoms: _34  and  _35
REMARK   18  A    between atoms: _35  and  _36
REMARK   19  A    between atoms: _40  and  _41
REMARK   20  A    between atoms: _46  and  _48
REMARK   21  A    between atoms: _48  and  _49
REMARK   22  A    between atoms: _48  and  _51
REMARK   23  A    between atoms: _51  and  _52
REMARK   24  A    between atoms: _57  and  _58
REMARK   25  A    between atoms: _60  and  _62
REMARK   26  A    between atoms: _62  and  _63
REMARK   27  A    between atoms: _62  and  _65
REMARK   28  A    between atoms: _67  and  _69
REMARK   29  A    between atoms: _69  and  _70
REMARK   30  A    between atoms: _69  and  _72
REMARK   31  A    between atoms: _72  and  _73
REMARK   32  A    between atoms: _73  and  _74
REMARK   33  A    between atoms: _74  and  _75
REMARK   34  A    between atoms: _75  and  _76
REMARK   35  A    between atoms: _80  and  _82
REMARK   36  A    between atoms: _82  and  _83
REMARK   37  A    between atoms: _82  and  _85
REMARK   38  A    between atoms: _85  and  _86
REMARK   39  A    between atoms: _91  and  _92
REMARK   40  A    between atoms: _94  and  _96
REMARK   41  A    between atoms: _96  and  _97
REMARK   42  A    between atoms: _99  and  _101
REMARK   43  A    between atoms: _101  and  _102
REMARK   44  A    between atoms: _105  and  _107
REMARK   45  A    between atoms: _107  and  _108
REMARK   46  A    between atoms: _107  and  _110
REMARK   47  A    between atoms: _110  and  _111
REMARK   48  A    between atoms: _121  and  _123
REMARK   49  A    between atoms: _123  and  _124
REMARK   50  A    between atoms: _126  and  _128
REMARK   51  A    between atoms: _128  and  _129
REMARK   52  A    between atoms: _128  and  _131
REMARK   53  A    between atoms: _131  and  _132
REMARK   54  A    between atoms: _132  and  _133
REMARK   55  A    between atoms: _135  and  _137
REMARK   56  A    between atoms: _137  and  _138
REMARK   57  A    between atoms: _137  and  _140
REMARK   58  A    between atoms: _143  and  _145
REMARK   59  A    between atoms: _145  and  _146
REMARK   60  A    between atoms: _150  and  _151
REMARK   61  A    between atoms: _156  and  _158
REMARK   62  A    between atoms: _158  and  _159
REMARK   63  A    between atoms: _158  and  _161
REMARK   64  A    between atoms: _161  and  _162
REMARK   65  A    between atoms: _165  and  _167
REMARK   66  A    between atoms: _167  and  _168
REMARK   67  A    between atoms: _167  and  _170
REMARK   68  A    between atoms: _170  and  _171
REMARK   69  A    between atoms: _174  and  _176
REMARK   70  A    between atoms: _176  and  _177
REMARK   71  A    between atoms: _176  and  _179
REMARK   72  A    between atoms: _179  and  _180
REMARK   73  A    between atoms: _183  and  _185
REMARK   74  A    between atoms: _185  and  _186
REMARK   75  A    between atoms: _185  and  _188
REMARK   76  A    between atoms: _188  and  _189
REMARK   77  A    between atoms: _192  and  _194
REMARK   78  A    between atoms: _194  and  _195
REMARK   79  A    between atoms: _194  and  _197
REMARK   80  A    between atoms: _197  and  _198
REMARK   81  A    between atoms: _198  and  _199
REMARK   82  A    between atoms: _199  and  _200
REMARK   83  A    between atoms: _209  and  _211
REMARK   84  A    between atoms: _211  and  _212
REMARK   85  A    between atoms: _211  and  _214
REMARK   86  A    between atoms: _214  and  _215
REMARK   87  A    between atoms: _221  and  _223
REMARK   88  A    between atoms: _223  and  _224
REMARK   89  A    between atoms: _223  and  _226
REMARK   90  A    between atoms: _226  and  _227
REMARK   91  A    between atoms: _230  and  _232
REMARK   92  A    between atoms: _232  and  _233
REMARK   93  A    between atoms: _235  and  _237
REMARK   94  A    between atoms: _237  and  _238
REMARK   95  A    between atoms: _237  and  _240
REMARK   96  A    between atoms: _240  and  _241
REMARK   97  A    between atoms: _244  and  _246
REMARK   98  A    between atoms: _246  and  _247
REMARK   99  A    between atoms: _246  and  _249
REMARK  100  A    between atoms: _249  and  _250
REMARK  101  A    between atoms: _252  and  _254
REMARK  102  A    between atoms: _254  and  _255
REMARK  103  A    between atoms: _254  and  _257
REMARK  104  A    between atoms: _257  and  _258
REMARK  105  A    between atoms: _261  and  _263
REMARK  106  A    between atoms: _263  and  _264
REMARK  107  A    between atoms: _267  and  _269
REMARK  108  A    between atoms: _269  and  _270
REMARK  109  A    between atoms: _269  and  _272
REMARK  110  A    between atoms: _275  and  _277
REMARK  111  A    between atoms: _277  and  _278
REMARK  112  A    between atoms: _277  and  _280
REMARK  113  A    between atoms: _280  and  _281
REMARK  114  A    between atoms: _281  and  _282
REMARK  115  A    between atoms: _282  and  _283
REMARK  116  A    between atoms: _292  and  _294
REMARK  117  A    between atoms: _294  and  _295
REMARK  118  A    between atoms: _294  and  _297
REMARK  119  A    between atoms: _297  and  _298
REMARK  120  A    between atoms: _301  and  _303
REMARK  121  A    between atoms: _303  and  _304
REMARK  122  A    between atoms: _306  and  _308
REMARK  123  A    between atoms: _308  and  _309
REMARK  124  A    between atoms: _308  and  _311
REMARK  125  A    between atoms: _311  and  _312
REMARK  126  A    between atoms: _314  and  _316
REMARK  127  A    between atoms: _316  and  _317
REMARK  128  A    between atoms: _316  and  _319
REMARK  129  A    between atoms: _319  and  _320
REMARK  130  A    between atoms: _323  and  _325
REMARK  131  A    between atoms: _325  and  _326
REMARK  132  A    between atoms: _325  and  _328
REMARK  133  A    between atoms: _328  and  _329
REMARK  134  A    between atoms: _329  and  _330
REMARK  135  A    between atoms: _332  and  _334
REMARK  136  A    between atoms: _334  and  _335
REMARK  137  A    between atoms: _334  and  _337
REMARK  138  A    between atoms: _337  and  _338
REMARK  139  A    between atoms: _341  and  _343
REMARK  140  A    between atoms: _343  and  _344
REMARK  141  A    between atoms: _343  and  _346
REMARK  142  A    between atoms: _346  and  _347
REMARK  143  A    between atoms: _353  and  _355
REMARK  144  A    between atoms: _355  and  _356
REMARK  145  A    between atoms: _355  and  _358
REMARK  146  A    between atoms: _358  and  _359
REMARK  147  A    between atoms: _365  and  _367
REMARK  148  A    between atoms: _367  and  _368
REMARK  149  A    between atoms: _367  and  _370
REMARK  150  A    between atoms: _373  and  _375
REMARK  151  A    between atoms: _375  and  _376
REMARK  152  A    between atoms: _375  and  _378
REMARK  153  A    between atoms: _378  and  _379
REMARK  154  A    between atoms: _379  and  _380
REMARK  155  A    between atoms: _380  and  _381
REMARK  156  A    between atoms: _390  and  _392
REMARK  157  A    between atoms: _392  and  _393
REMARK  158  A    between atoms: _392  and  _395
REMARK  159  A    between atoms: _395  and  _396
REMARK  160  A    between atoms: _401  and  _403
REMARK  161  A    between atoms: _403  and  _404
REMARK  162  A    between atoms: _403  and  _406
REMARK  163  A    between atoms: _406  and  _407
REMARK  164  A    between atoms: _409  and  _411
REMARK  165  A    between atoms: _411  and  _412
REMARK  166  A    between atoms: _411  and  _414
REMARK  167  A    between atoms: _414  and  _415
REMARK  168  A    between atoms: _418  and  _420
REMARK  169  A    between atoms: _420  and  _421
REMARK  170  A    between atoms: _423  and  _425
REMARK  171  A    between atoms: _425  and  _426
REMARK  172  A    between atoms: _425  and  _428
REMARK  173  A    between atoms: _428  and  _429
REMARK  174  A    between atoms: _432  and  _434
REMARK  175  A    between atoms: _434  and  _435
REMARK  176  A    between atoms: _434  and  _437
REMARK  177  A    between atoms: _437  and  _438
REMARK  178  A    between atoms: _441  and  _443
REMARK  179  A    between atoms: _443  and  _444
REMARK  180  A    between atoms: _443  and  _446
REMARK  181  A    between atoms: _446  and  _447
REMARK  182  A    between atoms: _450  and  _452
REMARK  183  A    between atoms: _452  and  _453
REMARK  184  A    between atoms: _452  and  _455
REMARK  185  A    between atoms: _455  and  _456
REMARK  186  A    between atoms: _456  and  _457
REMARK  187  A    between atoms: _459  and  _461
REMARK  188  A    between atoms: _461  and  _462
REMARK  189  A    between atoms: _461  and  _464
REMARK  190  A    between atoms: _464  and  _465
REMARK  191  A    between atoms: _465  and  _466
REMARK  192  A    between atoms: _469  and  _471
REMARK  193  A    between atoms: _471  and  _472
REMARK  194  A    between atoms: _471  and  _474
REMARK  195  A    between atoms: _474  and  _475
REMARK  196  A    between atoms: _477  and  _479
REMARK  197  A    between atoms: _479  and  _480
REMARK  198  A    between atoms: _479  and  _482
REMARK  199  A    between atoms: _482  and  _483
REMARK  200  A    between atoms: _486  and  _488
REMARK  201  A    between atoms: _488  and  _489
REMARK  202  A    between atoms: _488  and  _491
REMARK  203  A    between atoms: _491  and  _492
REMARK  204  A    between atoms: _494  and  _496
REMARK  205  A    between atoms: _496  and  _497
REMARK  206  A    between atoms: _496  and  _499
REMARK  207  A    between atoms: _499  and  _500
REMARK  208  A    between atoms: _503  and  _505
REMARK  209  A    between atoms: _505  and  _506
REMARK  210  A    between atoms: _505  and  _508
REMARK  211  A    between atoms: _508  and  _509
REMARK  212  A    between atoms: _514  and  _515
REMARK  213  A    between atoms: _517  and  _519
REMARK  214  A    between atoms: _519  and  _520
REMARK  215  A    between atoms: _519  and  _522
REMARK  216  A    between atoms: _525  and  _527
REMARK  217  A    between atoms: _527  and  _528
REMARK  218  A    between atoms: _527  and  _530
REMARK  219  A    between atoms: _530  and  _531
REMARK  220  A    between atoms: _531  and  _532
REMARK  221  A    between atoms: _532  and  _533
REMARK  222  A    between atoms: _533  and  _534
REMARK  223  A    between atoms: _538  and  _540
REMARK  224  A    between atoms: _540  and  _541
REMARK  225  A    between atoms: _543  and  _545
REMARK  226  A    between atoms: _545  and  _546
REMARK  227  A    between atoms: _545  and  _548
REMARK  228  A    between atoms: _548  and  _549
REMARK  229  A    between atoms: _554  and  _555
REMARK  230  A    between atoms: _557  and  _559
REMARK  231  A    between atoms: _559  and  _560
REMARK  232  A    between atoms: _562  and  _564
REMARK  233  A    between atoms: _564  and  _565
REMARK  234  A    between atoms: _564  and  _567
REMARK  235  A    between atoms: _567  and  _568
REMARK                            x       y       z     vdW  Elec       q    Type
REMARK                         _______ _______ _______ _____ _____    ______ ____
ROOT
ATOM      1  CG  TRP A   1     -15.820   3.283  17.288  0.00  0.00    -0.002 A 
ATOM      2  CD1 TRP A   1     -16.298   4.570  17.363  0.00  0.00    +0.068 A 
ATOM      3  NE1 TRP A   1     -15.248   5.466  17.440  0.00  0.00    -0.352 N 
ATOM      4  HE1 TRP A   1     -15.339   6.500  17.511  0.00  0.00    +0.166 HD
ATOM      5  CE2 TRP A   1     -14.068   4.770  17.408  0.00  0.00    +0.056 A 
ATOM      6  CZ2 TRP A   1     -12.749   5.230  17.474  0.00  0.00    +0.017 A 
ATOM      7  CH2 TRP A   1     -11.751   4.291  17.421  0.00  0.00    +0.001 A 
ATOM      8  CZ3 TRP A   1     -12.027   2.925  17.323  0.00  0.00    +0.000 A 
ATOM      9  CE3 TRP A   1     -13.335   2.461  17.268  0.00  0.00    +0.001 A 
ATOM     10  CD2 TRP A   1     -14.386   3.392  17.323  0.00  0.00    +0.013 A 
ENDROOT
BRANCH   1  11
ATOM     11  CB  TRP A   1     -16.650   2.003  17.191  0.00  0.00    +0.053 C 
BRANCH  11  12
ATOM     12  CA  TRP A   1     -16.650   1.136  18.467  0.00  0.00    +0.137 C 
BRANCH  12  13
ATOM     13  N   TRP A   1     -15.509   0.193  18.469  0.00  0.00    -0.239 NA
ATOM     14  H   TRP A   1     -15.291  -0.352  17.610  0.00  0.00    +0.142 HD
ENDBRANCH  12  13
BRANCH  12  15
ATOM     15  C   TRP A   1     -18.034   0.475  18.702  0.00  0.00    +0.224 C 
ATOM     16  O   TRP A   1     -18.993   1.166  19.049  0.00  0.00    -0.287 OA
ENDBRANCH  12  15
ENDBRANCH  11  12
ENDBRANCH   1  11
TORSDOF 4
REMARK  Name = ../refined-set-2016/3fv1/3fv1_pocket.pdb
REMARK  235 active torsions:
REMARK  status: ('A' for Active; 'I' for Inactive)
REMARK    1  A    between atoms: _1  and  _3
REMARK    2  A    between atoms: _3  and  _4
REMARK    3  A    between atoms: _3  and  _6
REMARK    4  A    between atoms: _6  and  _7
REMARK    5  A    between atoms: _10  and  _12
REMARK    6  A    between atoms: _12  and  _13
REMARK    7  A    between atoms: _12  and  _15
REMARK    8  A    between atoms: _15  and  _16
REMARK    9  A    between atoms: _19  and  _21
REMARK   10  A    between atoms: _21  and  _22
REMARK   11  A    between atoms: _21  and  _24
REMARK   12  A    between atoms: _24  and  _25
REMARK   13  A    between atoms: _25  and  _26
REMARK   14  A    between atoms: _29  and  _31
REMARK   15  A    between atoms: _31  and  _32
REMARK   16  A    between atoms: _31  and  _34
REMARK   17  A    between atoms: _34  and  _35
REMARK   18  A    between atoms: _35  and  _36
REMARK   19  A    between atoms: _40  and  _41
REMARK   20  A    between atoms: _46  and  _48
REMARK   21  A    between atoms: _48  and  _49
REMARK   22  A    between atoms: _48  and  _51
REMARK   23  A    between atoms: _51  and  _52
REMARK   24  A    between atoms: _57  and  _58
REMARK   25  A    between atoms: _60  and  _62
REMARK   26  A    between atoms: _62  and  _63
REMARK   27  A    between atoms: _62  and  _65
REMARK   28  A    between atoms: _67  and  _69
REMARK   29  A    between atoms: _69  and  _70
REMARK   30  A    between atoms: _69  and  _72
REMARK   31  A    between atoms: _72  and  _73
REMARK   32  A    between atoms: _73  and  _74
REMARK   33  A    between atoms: _74  and  _75
REMARK   34  A    between atoms: _75  and  _76
REMARK   35  A    between atoms: _80  and  _82
REMARK   36  A    between atoms: _82  and  _83
REMARK   37  A    between atoms: _82  and  _85
REMARK   38  A    between atoms: _85  and  _86
REMARK   39  A    between atoms: _91  and  _92
REMARK   40  A    between atoms: _94  and  _96
REMARK   41  A    between atoms: _96  and  _97
REMARK   42  A    between atoms: _99  and  _101
REMARK   43  A    between atoms: _101  and  _102
REMARK   44  A    between atoms: _105  and  _107
REMARK   45  A    between atoms: _107  and  _108
REMARK   46  A    between atoms: _107  and  _110
REMARK   47  A    between atoms: _110  and  _111
REMARK   48  A    between atoms: _121  and  _123
REMARK   49  A    between atoms: _123  and  _124
REMARK   50  A    between atoms: _126  and  _128
REMARK   51  A    between atoms: _128  and  _129
REMARK   52  A    between atoms: _128  and  _131
REMARK   53  A    between atoms: _131  and  _132
REMARK   54  A    between atoms: _132  and  _133
REMARK   55  A    between atoms: _135  and  _137
REMARK   56  A    between atoms: _137  and  _138
REMARK   57  A    between atoms: _137  and  _140
REMARK   58  A    between atoms: _143  and  _145
REMARK   59  A    between atoms: _145  and  _146
REMARK   60  A    between atoms: _150  and  _151
REMARK   61  A    between atoms: _156  and  _158
REMARK   62  A    between atoms: _158  and  _159
REMARK   63  A    between atoms: _158  and  _161
REMARK   64  A    between atoms: _161  and  _162
REMARK   65  A    between atoms: _165  and  _167
REMARK   66  A    between atoms: _167  and  _168
REMARK   67  A    between atoms: _167  and  _170
REMARK   68  A    between atoms: _170  and  _171
REMARK   69  A    between atoms: _174  and  _176
REMARK   70  A    between atoms: _176  and  _177
REMARK   71  A    between atoms: _176  and  _179
REMARK   72  A    between atoms: _179  and  _180
REMARK   73  A    between atoms: _183  and  _185
REMARK   74  A    between atoms: _185  and  _186
REMARK   75  A    between atoms: _185  and  _188
REMARK   76  A    between atoms: _188  and  _189
REMARK   77  A    between atoms: _192  and  _194
REMARK   78  A    between atoms: _194  and  _195
REMARK   79  A    between atoms: _194  and  _197
REMARK   80  A    between atoms: _197  and  _198
REMARK   81  A    between atoms: _198  and  _199
REMARK   82  A    between atoms: _199  and  _200
REMARK   83  A    between atoms: _209  and  _211
REMARK   84  A    between atoms: _211  and  _212
REMARK   85  A    between atoms: _211  and  _214
REMARK   86  A    between atoms: _214  and  _215
REMARK   87  A    between atoms: _221  and  _223
REMARK   88  A    between atoms: _223  and  _224
REMARK   89  A    between atoms: _223  and  _226
REMARK   90  A    between atoms: _226  and  _227
REMARK   91  A    between atoms: _230  and  _232
REMARK   92  A    between atoms: _232  and  _233
REMARK   93  A    between atoms: _235  and  _237
REMARK   94  A    between atoms: _237  and  _238
REMARK   95  A    between atoms: _237  and  _240
REMARK   96  A    between atoms: _240  and  _241
REMARK   97  A    between atoms: _244  and  _246
REMARK   98  A    between atoms: _246  and  _247
REMARK   99  A    between atoms: _246  and  _249
REMARK  100  A    between atoms: _249  and  _250
REMARK  101  A    between atoms: _252  and  _254
REMARK  102  A    between atoms: _254  and  _255
REMARK  103  A    between atoms: _254  and  _257
REMARK  104  A    between atoms: _257  and  _258
REMARK  105  A    between atoms: _261  and  _263
REMARK  106  A    between atoms: _263  and  _264
REMARK  107  A    between atoms: _267  and  _269
REMARK  108  A    between atoms: _269  and  _270
REMARK  109  A    between atoms: _269  and  _272
REMARK  110  A    between atoms: _275  and  _277
REMARK  111  A    between atoms: _277  and  _278
REMARK  112  A    between atoms: _277  and  _280
REMARK  113  A    between atoms: _280  and  _281
REMARK  114  A    between atoms: _281  and  _282
REMARK  115  A    between atoms: _282  and  _283
REMARK  116  A    between atoms: _292  and  _294
REMARK  117  A    between atoms: _294  and  _295
REMARK  118  A    between atoms: _294  and  _297
REMARK  119  A    between atoms: _297  and  _298
REMARK  120  A    between atoms: _301  and  _303
REMARK  121  A    between atoms: _303  and  _304
REMARK  122  A    between atoms: _306  and  _308
REMARK  123  A    between atoms: _308  and  _309
REMARK  124  A    between atoms: _308  and  _311
REMARK  125  A    between atoms: _311  and  _312
REMARK  126  A    between atoms: _314  and  _316
REMARK  127  A    between atoms: _316  and  _317
REMARK  128  A    between atoms: _316  and  _319
REMARK  129  A    between atoms: _319  and  _320
REMARK  130  A    between atoms: _323  and  _325
REMARK  131  A    between atoms: _325  and  _326
REMARK  132  A    between atoms: _325  and  _328
REMARK  133  A    between atoms: _328  and  _329
REMARK  134  A    between atoms: _329  and  _330
REMARK  135  A    between atoms: _332  and  _334
REMARK  136  A    between atoms: _334  and  _335
REMARK  137  A    between atoms: _334  and  _337
REMARK  138  A    between atoms: _337  and  _338
REMARK  139  A    between atoms: _341  and  _343
REMARK  140  A    between atoms: _343  and  _344
REMARK  141  A    between atoms: _343  and  _346
REMARK  142  A    between atoms: _346  and  _347
REMARK  143  A    between atoms: _353  and  _355
REMARK  144  A    between atoms: _355  and  _356
REMARK  145  A    between atoms: _355  and  _358
REMARK  146  A    between atoms: _358  and  _359
REMARK  147  A    between atoms: _365  and  _367
REMARK  148  A    between atoms: _367  and  _368
REMARK  149  A    between atoms: _367  and  _370
REMARK  150  A    between atoms: _373  and  _375
REMARK  151  A    between atoms: _375  and  _376
REMARK  152  A    between atoms: _375  and  _378
REMARK  153  A    between atoms: _378  and  _379
REMARK  154  A    between atoms: _379  and  _380
REMARK  155  A    between atoms: _380  and  _381
REMARK  156  A    between atoms: _390  and  _392
REMARK  157  A    between atoms: _392  and  _393
REMARK  158  A    between atoms: _392  and  _395
REMARK  159  A    between atoms: _395  and  _396
REMARK  160  A    between atoms: _401  and  _403
REMARK  161  A    between atoms: _403  and  _404
REMARK  162  A    between atoms: _403  and  _406
REMARK  163  A    between atoms: _406  and  _407
REMARK  164  A    between atoms: _409  and  _411
REMARK  165  A    between atoms: _411  and  _412
REMARK  166  A    between atoms: _411  and  _414
REMARK  167  A    between atoms: _414  and  _415
REMARK  168  A    between atoms: _418  and  _420
REMARK  169  A    between atoms: _420  and  _421
REMARK  170  A    between atoms: _423  and  _425
REMARK  171  A    between atoms: _425  and  _426
REMARK  172  A    between atoms: _425  and  _428
REMARK  173  A    between atoms: _428  and  _429
REMARK  174  A    between atoms: _432  and  _434
REMARK  175  A    between atoms: _434  and  _435
REMARK  176  A    between atoms: _434  and  _437
REMARK  177  A    between atoms: _437  and  _438
REMARK  178  A    between atoms: _441  and  _443
REMARK  179  A    between atoms: _443  and  _444
REMARK  180  A    between atoms: _443  and  _446
REMARK  181  A    between atoms: _446  and  _447
REMARK  182  A    between atoms: _450  and  _452
REMARK  183  A    between atoms: _452  and  _453
REMARK  184  A    between atoms: _452  and  _455
REMARK  185  A    between atoms: _455  and  _456
REMARK  186  A    between atoms: _456  and  _457
REMARK  187  A    between atoms: _459  and  _461
REMARK  188  A    between atoms: _461  and  _462
REMARK  189  A    between atoms: _461  and  _464
REMARK  190  A    between atoms: _464  and  _465
REMARK  191  A    between atoms: _465  and  _466
REMARK  192  A    between atoms: _469  and  _471
REMARK  193  A    between atoms: _471  and  _472
REMARK  194  A    between atoms: _471  and  _474
REMARK  195  A    between atoms: _474  and  _475
REMARK  196  A    between atoms: _477  and  _479
REMARK  197  A    between atoms: _479  and  _480
REMARK  198  A    between atoms: _479  and  _482
REMARK  199  A    between atoms: _482  and  _483
REMARK  200  A    between atoms: _486  and  _488
REMARK  201  A    between atoms: _488  and  _489
REMARK  202  A    between atoms: _488  and  _491
REMARK  203  A    between atoms: _491  and  _492
REMARK  204  A    between atoms: _494  and  _496
REMARK  205  A    between atoms: _496  and  _497
REMARK  206  A    between atoms: _496  and  _499
REMARK  207  A    between atoms: _499  and  _500
REMARK  208  A    between atoms: _503  and  _505
REMARK  209  A    between atoms: _505  and  _506
REMARK  210  A    between atoms: _505  and  _508
REMARK  211  A    between atoms: _508  and  _509
REMARK  212  A    between atoms: _514  and  _515
REMARK  213  A    between atoms: _517  and  _519
REMARK  214  A    between atoms: _519  and  _520
REMARK  215  A    between atoms: _519  and  _522
REMARK  216  A    between atoms: _525  and  _527
REMARK  217  A    between atoms: _527  and  _528
REMARK  218  A    between atoms: _527  and  _530
REMARK  219  A    between atoms: _530  and  _531
REMARK  220  A    between atoms: _531  and  _532
REMARK  221  A    between atoms: _532  and  _533
REMARK  222  A    between atoms: _533  and  _534
REMARK  223  A    between atoms: _538  and  _540
REMARK  224  A    between atoms: _540  and  _541
REMARK  225  A    between atoms: _543  and  _545
REMARK  226  A    between atoms: _545  and  _546
REMARK  227  A    between atoms: _545  and  _548
REMARK  228  A    between atoms: _548  and  _549
REMARK  229  A    between atoms: _554  and  _555
REMARK  230  A    between atoms: _557  and  _559
REMARK  231  A    between atoms: _559  and  _560
REMARK  232  A    between atoms: _562  and  _564
REMARK  233  A    between atoms: _564  and  _565
REMARK  234  A    between atoms: _564  and  _567
REMARK  235  A    between atoms: _567  and  _568
REMARK                            x       y       z     vdW  Elec       q    Type
REMARK                         _______ _______ _______ _____ _____    ______ ____
ROOT
ATOM      1  O   HOH     1      -3.408  17.411  24.378  0.00  0.00    +0.000 OA
ENDROOT
TORSDOF 0
REMARK  Name = ../refined-set-2016/3fv1/3fv1_pocket.pdb
REMARK  235 active torsions:
REMARK  status: ('A' for Active; 'I' for Inactive)
REMARK    1  A    between atoms: _1  and  _3
REMARK    2  A    between atoms: _3  and  _4
REMARK    3  A    between atoms: _3  and  _6
REMARK    4  A    between atoms: _6  and  _7
REMARK    5  A    between atoms: _10  and  _12
REMARK    6  A    between atoms: _12  and  _13
REMARK    7  A    between atoms: _12  and  _15
REMARK    8  A    between atoms: _15  and  _16
REMARK    9  A    between atoms: _19  and  _21
REMARK   10  A    between atoms: _21  and  _22
REMARK   11  A    between atoms: _21  and  _24
REMARK   12  A    between atoms: _24  and  _25
REMARK   13  A    between atoms: _25  and  _26
REMARK   14  A    between atoms: _29  and  _31
REMARK   15  A    between atoms: _31  and  _32
REMARK   16  A    between atoms: _31  and  _34
REMARK   17  A    between atoms: _34  and  _35
REMARK   18  A    between atoms: _35  and  _36
REMARK   19  A    between atoms: _40  and  _41
REMARK   20  A    between atoms: _46  and  _48
REMARK   21  A    between atoms: _48  and  _49
REMARK   22  A    between atoms: _48  and  _51
REMARK   23  A    between atoms: _51  and  _52
REMARK   24  A    between atoms: _57  and  _58
REMARK   25  A    between atoms: _60  and  _62
REMARK   26  A    between atoms: _62  and  _63
REMARK   27  A    between atoms: _62  and  _65
REMARK   28  A    between atoms: _67  and  _69
REMARK   29  A    between atoms: _69  and  _70
REMARK   30  A    between atoms: _69  and  _72
REMARK   31  A    between atoms: _72  and  _73
REMARK   32  A    between atoms: _73  and  _74
REMARK   33  A    between atoms: _74  and  _75
REMARK   34  A    between atoms: _75  and  _76
REMARK   35  A    between atoms: _80  and  _82
REMARK   36  A    between atoms: _82  and  _83
REMARK   37  A    between atoms: _82  and  _85
REMARK   38  A    between atoms: _85  and  _86
REMARK   39  A    between atoms: _91  and  _92
REMARK   40  A    between atoms: _94  and  _96
REMARK   41  A    between atoms: _96  and  _97
REMARK   42  A    between atoms: _99  and  _101
REMARK   43  A    between atoms: _101  and  _102
REMARK   44  A    between atoms: _105  and  _107
REMARK   45  A    between atoms: _107  and  _108
REMARK   46  A    between atoms: _107  and  _110
REMARK   47  A    between atoms: _110  and  _111
REMARK   48  A    between atoms: _121  and  _123
REMARK   49  A    between atoms: _123  and  _124
REMARK   50  A    between atoms: _126  and  _128
REMARK   51  A    between atoms: _128  and  _129
REMARK   52  A    between atoms: _128  and  _131
REMARK   53  A    between atoms: _131  and  _132
REMARK   54  A    between atoms: _132  and  _133
REMARK   55  A    between atoms: _135  and  _137
REMARK   56  A    between atoms: _137  and  _138
REMARK   57  A    between atoms: _137  and  _140
REMARK   58  A    between atoms: _143  and  _145
REMARK   59  A    between atoms: _145  and  _146
REMARK   60  A    between atoms: _150  and  _151
REMARK   61  A    between atoms: _156  and  _158
REMARK   62  A    between atoms: _158  and  _159
REMARK   63  A    between atoms: _158  and  _161
REMARK   64  A    between atoms: _161  and  _162
REMARK   65  A    between atoms: _165  and  _167
REMARK   66  A    between atoms: _167  and  _168
REMARK   67  A    between atoms: _167  and  _170
REMARK   68  A    between atoms: _170  and  _171
REMARK   69  A    between atoms: _174  and  _176
REMARK   70  A    between atoms: _176  and  _177
REMARK   71  A    between atoms: _176  and  _179
REMARK   72  A    between atoms: _179  and  _180
REMARK   73  A    between atoms: _183  and  _185
REMARK   74  A    between atoms: _185  and  _186
REMARK   75  A    between atoms: _185  and  _188
REMARK   76  A    between atoms: _188  and  _189
REMARK   77  A    between atoms: _192  and  _194
REMARK   78  A    between atoms: _194  and  _195
REMARK   79  A    between atoms: _194  and  _197
REMARK   80  A    between atoms: _197  and  _198
REMARK   81  A    between atoms: _198  and  _199
REMARK   82  A    between atoms: _199  and  _200
REMARK   83  A    between atoms: _209  and  _211
REMARK   84  A    between atoms: _211  and  _212
REMARK   85  A    between atoms: _211  and  _214
REMARK   86  A    between atoms: _214  and  _215
REMARK   87  A    between atoms: _221  and  _223
REMARK   88  A    between atoms: _223  and  _224
REMARK   89  A    between atoms: _223  and  _226
REMARK   90  A    between atoms: _226  and  _227
REMARK   91  A    between atoms: _230  and  _232
REMARK   92  A    between atoms: _232  and  _233
REMARK   93  A    between atoms: _235  and  _237
REMARK   94  A    between atoms: _237  and  _238
REMARK   95  A    between atoms: _237  and  _240
REMARK   96  A    between atoms: _240  and  _241
REMARK   97  A    between atoms: _244  and  _246
REMARK   98  A    between atoms: _246  and  _247
REMARK   99  A    between atoms: _246  and  _249
REMARK  100  A    between atoms: _249  and  _250
REMARK  101  A    between atoms: _252  and  _254
REMARK  102  A    between atoms: _254  and  _255
REMARK  103  A    between atoms: _254  and  _257
REMARK  104  A    between atoms: _257  and  _258
REMARK  105  A    between atoms: _261  and  _263
REMARK  106  A    between atoms: _263  and  _264
REMARK  107  A    between atoms: _267  and  _269
REMARK  108  A    between atoms: _269  and  _270
REMARK  109  A    between atoms: _269  and  _272
REMARK  110  A    between atoms: _275  and  _277
REMARK  111  A    between atoms: _277  and  _278
REMARK  112  A    between atoms: _277  and  _280
REMARK  113  A    between atoms: _280  and  _281
REMARK  114  A    between atoms: _281  and  _282
REMARK  115  A    between atoms: _282  and  _283
REMARK  116  A    between atoms: _292  and  _294
REMARK  117  A    between atoms: _294  and  _295
REMARK  118  A    between atoms: _294  and  _297
REMARK  119  A    between atoms: _297  and  _298
REMARK  120  A    between atoms: _301  and  _303
REMARK  121  A    between atoms: _303  and  _304
REMARK  122  A    between atoms: _306  and  _308
REMARK  123  A    between atoms: _308  and  _309
REMARK  124  A    between atoms: _308  and  _311
REMARK  125  A    between atoms: _311  and  _312
REMARK  126  A    between atoms: _314  and  _316
REMARK  127  A    between atoms: _316  and  _317
REMARK  128  A    between atoms: _316  and  _319
REMARK  129  A    between atoms: _319  and  _320
REMARK  130  A    between atoms: _323  and  _325
REMARK  131  A    between atoms: _325  and  _326
REMARK  132  A    between atoms: _325  and  _328
REMARK  133  A    between atoms: _328  and  _329
REMARK  134  A    between atoms: _329  and  _330
REMARK  135  A    between atoms: _332  and  _334
REMARK  136  A    between atoms: _334  and  _335
REMARK  137  A    between atoms: _334  and  _337
REMARK  138  A    between atoms: _337  and  _338
REMARK  139  A    between atoms: _341  and  _343
REMARK  140  A    between atoms: _343  and  _344
REMARK  141  A    between atoms: _343  and  _346
REMARK  142  A    between atoms: _346  and  _347
REMARK  143  A    between atoms: _353  and  _355
REMARK  144  A    between atoms: _355  and  _356
REMARK  145  A    between atoms: _355  and  _358
REMARK  146  A    between atoms: _358  and  _359
REMARK  147  A    between atoms: _365  and  _367
REMARK  148  A    between atoms: _367  and  _368
REMARK  149  A    between atoms: _367  and  _370
REMARK  150  A    between atoms: _373  and  _375
REMARK  151  A    between atoms: _375  and  _376
REMARK  152  A    between atoms: _375  and  _378
REMARK  153  A    between atoms: _378  and  _379
REMARK  154  A    between atoms: _379  and  _380
REMARK  155  A    between atoms: _380  and  _381
REMARK  156  A    between atoms: _390  and  _392
REMARK  157  A    between atoms: _392  and  _393
REMARK  158  A    between atoms: _392  and  _395
REMARK  159  A    between atoms: _395  and  _396
REMARK  160  A    between atoms: _401  and  _403
REMARK  161  A    between atoms: _403  and  _404
REMARK  162  A    between atoms: _403  and  _406
REMARK  163  A    between atoms: _406  and  _407
REMARK  164  A    between atoms: _409  and  _411
REMARK  165  A    between atoms: _411  and  _412
REMARK  166  A    between atoms: _411  and  _414
REMARK  167  A    between atoms: _414  and  _415
REMARK  168  A    between atoms: _418  and  _420
REMARK  169  A    between atoms: _420  and  _421
REMARK  170  A    between atoms: _423  and  _425
REMARK  171  A    between atoms: _425  and  _426
REMARK  172  A    between atoms: _425  and  _428
REMARK  173  A    between atoms: _428  and  _429
REMARK  174  A    between atoms: _432  and  _434
REMARK  175  A    between atoms: _434  and  _435
REMARK  176  A    between atoms: _434  and  _437
REMARK  177  A    between atoms: _437  and  _438
REMARK  178  A    between atoms: _441  and  _443
REMARK  179  A    between atoms: _443  and  _444
REMARK  180  A    between atoms: _443  and  _446
REMARK  181  A    between atoms: _446  and  _447
REMARK  182  A    between atoms: _450  and  _452
REMARK  183  A    between atoms: _452  and  _453
REMARK  184  A    between atoms: _452  and  _455
REMARK  185  A    between atoms: _455  and  _456
REMARK  186  A    between atoms: _456  and  _457
REMARK  187  A    between atoms: _459  and  _461
REMARK  188  A    between atoms: _461  and  _462
REMARK  189  A    between atoms: _461  and  _464
REMARK  190  A    between atoms: _464  and  _465
REMARK  191  A    between atoms: _465  and  _466
REMARK  192  A    between atoms: _469  and  _471
REMARK  193  A    between atoms: _471  and  _472
REMARK  194  A    between atoms: _471  and  _474
REMARK  195  A    between atoms: _474  and  _475
REMARK  196  A    between atoms: _477  and  _479
REMARK  197  A    between atoms: _479  and  _480
REMARK  198  A    between atoms: _479  and  _482
REMARK  199  A    between atoms: _482  and  _483
REMARK  200  A    between atoms: _486  and  _488
REMARK  201  A    between atoms: _488  and  _489
REMARK  202  A    between atoms: _488  and  _491
REMARK  203  A    between atoms: _491  and  _492
REMARK  204  A    between atoms: _494  and  _496
REMARK  205  A    between atoms: _496  and  _497
REMARK  206  A    between atoms: _496  and  _499
REMARK  207  A    between atoms: _499  and  _500
REMARK  208  A    between atoms: _503  and  _505
REMARK  209  A    between atoms: _505  and  _506
REMARK  210  A    between atoms: _505  and  _508
REMARK  211  A    between atoms: _508  and  _509
REMARK  212  A    between atoms: _514  and  _515
REMARK  213  A    between atoms: _517  and  _519
REMARK  214  A    between atoms: _519  and  _520
REMARK  215  A    between atoms: _519  and  _522
REMARK  216  A    between atoms: _525  and  _527
REMARK  217  A    between atoms: _527  and  _528
REMARK  218  A    between atoms: _527  and  _530
REMARK  219  A    between atoms: _530  and  _531
REMARK  220  A    between atoms: _531  and  _532
REMARK  221  A    between atoms: _532  and  _533
REMARK  222  A    between atoms: _533  and  _534
REMARK  223  A    between atoms: _538  and  _540
REMARK  224  A    between atoms: _540  and  _541
REMARK  225  A    between atoms: _543  and  _545
REMARK  226  A    between atoms: _545  and  _546
REMARK  227  A    between atoms: _545  and  _548
REMARK  228  A    between atoms: _548  and  _549
REMARK  229  A    between atoms: _554  and  _555
REMARK  230  A    between atoms: _557  and  _559
REMARK  231  A    between atoms: _559  and  _560
REMARK  232  A    between atoms: _562  and  _564
REMARK  233  A    between atoms: _564  and  _565
REMARK  234  A    between atoms: _564  and  _567
REMARK  235  A    between atoms: _567  and  _568
REMARK                            x       y       z     vdW  Elec       q    Type
REMARK                         _______ _______ _______ _____ _____    ______ ____
ROOT
ATOM      1  O   HOH     1      -6.940  20.273  20.811  0.00  0.00    +0.000 OA
ENDROOT
TORSDOF 0
REMARK  Name = ../refined-set-2016/3fv1/3fv1_pocket.pdb
REMARK  235 active torsions:
REMARK  status: ('A' for Active; 'I' for Inactive)
REMARK    1  A    between atoms: _1  and  _3
REMARK    2  A    between atoms: _3  and  _4
REMARK    3  A    between atoms: _3  and  _6
REMARK    4  A    between atoms: _6  and  _7
REMARK    5  A    between atoms: _10  and  _12
REMARK    6  A    between atoms: _12  and  _13
REMARK    7  A    between atoms: _12  and  _15
REMARK    8  A    between atoms: _15  and  _16
REMARK    9  A    between atoms: _19  and  _21
REMARK   10  A    between atoms: _21  and  _22
REMARK   11  A    between atoms: _21  and  _24
REMARK   12  A    between atoms: _24  and  _25
REMARK   13  A    between atoms: _25  and  _26
REMARK   14  A    between atoms: _29  and  _31
REMARK   15  A    between atoms: _31  and  _32
REMARK   16  A    between atoms: _31  and  _34
REMARK   17  A    between atoms: _34  and  _35
REMARK   18  A    between atoms: _35  and  _36
REMARK   19  A    between atoms: _40  and  _41
REMARK   20  A    between atoms: _46  and  _48
REMARK   21  A    between atoms: _48  and  _49
REMARK   22  A    between atoms: _48  and  _51
REMARK   23  A    between atoms: _51  and  _52
REMARK   24  A    between atoms: _57  and  _58
REMARK   25  A    between atoms: _60  and  _62
REMARK   26  A    between atoms: _62  and  _63
REMARK   27  A    between atoms: _62  and  _65
REMARK   28  A    between atoms: _67  and  _69
REMARK   29  A    between atoms: _69  and  _70
REMARK   30  A    between atoms: _69  and  _72
REMARK   31  A    between atoms: _72  and  _73
REMARK   32  A    between atoms: _73  and  _74
REMARK   33  A    between atoms: _74  and  _75
REMARK   34  A    between atoms: _75  and  _76
REMARK   35  A    between atoms: _80  and  _82
REMARK   36  A    between atoms: _82  and  _83
REMARK   37  A    between atoms: _82  and  _85
REMARK   38  A    between atoms: _85  and  _86
REMARK   39  A    between atoms: _91  and  _92
REMARK   40  A    between atoms: _94  and  _96
REMARK   41  A    between atoms: _96  and  _97
REMARK   42  A    between atoms: _99  and  _101
REMARK   43  A    between atoms: _101  and  _102
REMARK   44  A    between atoms: _105  and  _107
REMARK   45  A    between atoms: _107  and  _108
REMARK   46  A    between atoms: _107  and  _110
REMARK   47  A    between atoms: _110  and  _111
REMARK   48  A    between atoms: _121  and  _123
REMARK   49  A    between atoms: _123  and  _124
REMARK   50  A    between atoms: _126  and  _128
REMARK   51  A    between atoms: _128  and  _129
REMARK   52  A    between atoms: _128  and  _131
REMARK   53  A    between atoms: _131  and  _132
REMARK   54  A    between atoms: _132  and  _133
REMARK   55  A    between atoms: _135  and  _137
REMARK   56  A    between atoms: _137  and  _138
REMARK   57  A    between atoms: _137  and  _140
REMARK   58  A    between atoms: _143  and  _145
REMARK   59  A    between atoms: _145  and  _146
REMARK   60  A    between atoms: _150  and  _151
REMARK   61  A    between atoms: _156  and  _158
REMARK   62  A    between atoms: _158  and  _159
REMARK   63  A    between atoms: _158  and  _161
REMARK   64  A    between atoms: _161  and  _162
REMARK   65  A    between atoms: _165  and  _167
REMARK   66  A    between atoms: _167  and  _168
REMARK   67  A    between atoms: _167  and  _170
REMARK   68  A    between atoms: _170  and  _171
REMARK   69  A    between atoms: _174  and  _176
REMARK   70  A    between atoms: _176  and  _177
REMARK   71  A    between atoms: _176  and  _179
REMARK   72  A    between atoms: _179  and  _180
REMARK   73  A    between atoms: _183  and  _185
REMARK   74  A    between atoms: _185  and  _186
REMARK   75  A    between atoms: _185  and  _188
REMARK   76  A    between atoms: _188  and  _189
REMARK   77  A    between atoms: _192  and  _194
REMARK   78  A    between atoms: _194  and  _195
REMARK   79  A    between atoms: _194  and  _197
REMARK   80  A    between atoms: _197  and  _198
REMARK   81  A    between atoms: _198  and  _199
REMARK   82  A    between atoms: _199  and  _200
REMARK   83  A    between atoms: _209  and  _211
REMARK   84  A    between atoms: _211  and  _212
REMARK   85  A    between atoms: _211  and  _214
REMARK   86  A    between atoms: _214  and  _215
REMARK   87  A    between atoms: _221  and  _223
REMARK   88  A    between atoms: _223  and  _224
REMARK   89  A    between atoms: _223  and  _226
REMARK   90  A    between atoms: _226  and  _227
REMARK   91  A    between atoms: _230  and  _232
REMARK   92  A    between atoms: _232  and  _233
REMARK   93  A    between atoms: _235  and  _237
REMARK   94  A    between atoms: _237  and  _238
REMARK   95  A    between atoms: _237  and  _240
REMARK   96  A    between atoms: _240  and  _241
REMARK   97  A    between atoms: _244  and  _246
REMARK   98  A    between atoms: _246  and  _247
REMARK   99  A    between atoms: _246  and  _249
REMARK  100  A    between atoms: _249  and  _250
REMARK  101  A    between atoms: _252  and  _254
REMARK  102  A    between atoms: _254  and  _255
REMARK  103  A    between atoms: _254  and  _257
REMARK  104  A    between atoms: _257  and  _258
REMARK  105  A    between atoms: _261  and  _263
REMARK  106  A    between atoms: _263  and  _264
REMARK  107  A    between atoms: _267  and  _269
REMARK  108  A    between atoms: _269  and  _270
REMARK  109  A    between atoms: _269  and  _272
REMARK  110  A    between atoms: _275  and  _277
REMARK  111  A    between atoms: _277  and  _278
REMARK  112  A    between atoms: _277  and  _280
REMARK  113  A    between atoms: _280  and  _281
REMARK  114  A    between atoms: _281  and  _282
REMARK  115  A    between atoms: _282  and  _283
REMARK  116  A    between atoms: _292  and  _294
REMARK  117  A    between atoms: _294  and  _295
REMARK  118  A    between atoms: _294  and  _297
REMARK  119  A    between atoms: _297  and  _298
REMARK  120  A    between atoms: _301  and  _303
REMARK  121  A    between atoms: _303  and  _304
REMARK  122  A    between atoms: _306  and  _308
REMARK  123  A    between atoms: _308  and  _309
REMARK  124  A    between atoms: _308  and  _311
REMARK  125  A    between atoms: _311  and  _312
REMARK  126  A    between atoms: _314  and  _316
REMARK  127  A    between atoms: _316  and  _317
REMARK  128  A    between atoms: _316  and  _319
REMARK  129  A    between atoms: _319  and  _320
REMARK  130  A    between atoms: _323  and  _325
REMARK  131  A    between atoms: _325  and  _326
REMARK  132  A    between atoms: _325  and  _328
REMARK  133  A    between atoms: _328  and  _329
REMARK  134  A    between atoms: _329  and  _330
REMARK  135  A    between atoms: _332  and  _334
REMARK  136  A    between atoms: _334  and  _335
REMARK  137  A    between atoms: _334  and  _337
REMARK  138  A    between atoms: _337  and  _338
REMARK  139  A    between atoms: _341  and  _343
REMARK  140  A    between atoms: _343  and  _344
REMARK  141  A    between atoms: _343  and  _346
REMARK  142  A    between atoms: _346  and  _347
REMARK  143  A    between atoms: _353  and  _355
REMARK  144  A    between atoms: _355  and  _356
REMARK  145  A    between atoms: _355  and  _358
REMARK  146  A    between atoms: _358  and  _359
REMARK  147  A    between atoms: _365  and  _367
REMARK  148  A    between atoms: _367  and  _368
REMARK  149  A    between atoms: _367  and  _370
REMARK  150  A    between atoms: _373  and  _375
REMARK  151  A    between atoms: _375  and  _376
REMARK  152  A    between atoms: _375  and  _378
REMARK  153  A    between atoms: _378  and  _379
REMARK  154  A    between atoms: _379  and  _380
REMARK  155  A    between atoms: _380  and  _381
REMARK  156  A    between atoms: _390  and  _392
REMARK  157  A    between atoms: _392  and  _393
REMARK  158  A    between atoms: _392  and  _395
REMARK  159  A    between atoms: _395  and  _396
REMARK  160  A    between atoms: _401  and  _403
REMARK  161  A    between atoms: _403  and  _404
REMARK  162  A    between atoms: _403  and  _406
REMARK  163  A    between atoms: _406  and  _407
REMARK  164  A    between atoms: _409  and  _411
REMARK  165  A    between atoms: _411  and  _412
REMARK  166  A    between atoms: _411  and  _414
REMARK  167  A    between atoms: _414  and  _415
REMARK  168  A    between atoms: _418  and  _420
REMARK  169  A    between atoms: _420  and  _421
REMARK  170  A    between atoms: _423  and  _425
REMARK  171  A    between atoms: _425  and  _426
REMARK  172  A    between atoms: _425  and  _428
REMARK  173  A    between atoms: _428  and  _429
REMARK  174  A    between atoms: _432  and  _434
REMARK  175  A    between atoms: _434  and  _435
REMARK  176  A    between atoms: _434  and  _437
REMARK  177  A    between atoms: _437  and  _438
REMARK  178  A    between atoms: _441  and  _443
REMARK  179  A    between atoms: _443  and  _444
REMARK  180  A    between atoms: _443  and  _446
REMARK  181  A    between atoms: _446  and  _447
REMARK  182  A    between atoms: _450  and  _452
REMARK  183  A    between atoms: _452  and  _453
REMARK  184  A    between atoms: _452  and  _455
REMARK  185  A    between atoms: _455  and  _456
REMARK  186  A    between atoms: _456  and  _457
REMARK  187  A    between atoms: _459  and  _461
REMARK  188  A    between atoms: _461  and  _462
REMARK  189  A    between atoms: _461  and  _464
REMARK  190  A    between atoms: _464  and  _465
REMARK  191  A    between atoms: _465  and  _466
REMARK  192  A    between atoms: _469  and  _471
REMARK  193  A    between atoms: _471  and  _472
REMARK  194  A    between atoms: _471  and  _474
REMARK  195  A    between atoms: _474  and  _475
REMARK  196  A    between atoms: _477  and  _479
REMARK  197  A    between atoms: _479  and  _480
REMARK  198  A    between atoms: _479  and  _482
REMARK  199  A    between atoms: _482  and  _483
REMARK  200  A    between atoms: _486  and  _488
REMARK  201  A    between atoms: _488  and  _489
REMARK  202  A    between atoms: _488  and  _491
REMARK  203  A    between atoms: _491  and  _492
REMARK  204  A    between atoms: _494  and  _496
REMARK  205  A    between atoms: _496  and  _497
REMARK  206  A    between atoms: _496  and  _499
REMARK  207  A    between atoms: _499  and  _500
REMARK  208  A    between atoms: _503  and  _505
REMARK  209  A    between atoms: _505  and  _506
REMARK  210  A    between atoms: _505  and  _508
REMARK  211  A    between atoms: _508  and  _509
REMARK  212  A    between atoms: _514  and  _515
REMARK  213  A    between atoms: _517  and  _519
REMARK  214  A    between atoms: _519  and  _520
REMARK  215  A    between atoms: _519  and  _522
REMARK  216  A    between atoms: _525  and  _527
REMARK  217  A    between atoms: _527  and  _528
REMARK  218  A    between atoms: _527  and  _530
REMARK  219  A    between atoms: _530  and  _531
REMARK  220  A    between atoms: _531  and  _532
REMARK  221  A    between atoms: _532  and  _533
REMARK  222  A    between atoms: _533  and  _534
REMARK  223  A    between atoms: _538  and  _540
REMARK  224  A    between atoms: _540  and  _541
REMARK  225  A    between atoms: _543  and  _545
REMARK  226  A    between atoms: _545  and  _546
REMARK  227  A    between atoms: _545  and  _548
REMARK  228  A    between atoms: _548  and  _549
REMARK  229  A    between atoms: _554  and  _555
REMARK  230  A    between atoms: _557  and  _559
REMARK  231  A    between atoms: _559  and  _560
REMARK  232  A    between atoms: _562  and  _564
REMARK  233  A    between atoms: _564  and  _565
REMARK  234  A    between atoms: _564  and  _567
REMARK  235  A    between atoms: _567  and  _568
REMARK                            x       y       z     vdW  Elec       q    Type
REMARK                         _______ _______ _______ _____ _____    ______ ____
ROOT
ATOM      1  O   HOH     1      -4.499  16.012  26.586  0.00  0.00    +0.000 OA
ENDROOT
TORSDOF 0
REMARK  Name = ../refined-set-2016/3fv1/3fv1_pocket.pdb
REMARK  235 active torsions:
REMARK  status: ('A' for Active; 'I' for Inactive)
REMARK    1  A    between atoms: _1  and  _3
REMARK    2  A    between atoms: _3  and  _4
REMARK    3  A    between atoms: _3  and  _6
REMARK    4  A    between atoms: _6  and  _7
REMARK    5  A    between atoms: _10  and  _12
REMARK    6  A    between atoms: _12  and  _13
REMARK    7  A    between atoms: _12  and  _15
REMARK    8  A    between atoms: _15  and  _16
REMARK    9  A    between atoms: _19  and  _21
REMARK   10  A    between atoms: _21  and  _22
REMARK   11  A    between atoms: _21  and  _24
REMARK   12  A    between atoms: _24  and  _25
REMARK   13  A    between atoms: _25  and  _26
REMARK   14  A    between atoms: _29  and  _31
REMARK   15  A    between atoms: _31  and  _32
REMARK   16  A    between atoms: _31  and  _34
REMARK   17  A    between atoms: _34  and  _35
REMARK   18  A    between atoms: _35  and  _36
REMARK   19  A    between atoms: _40  and  _41
REMARK   20  A    between atoms: _46  and  _48
REMARK   21  A    between atoms: _48  and  _49
REMARK   22  A    between atoms: _48  and  _51
REMARK   23  A    between atoms: _51  and  _52
REMARK   24  A    between atoms: _57  and  _58
REMARK   25  A    between atoms: _60  and  _62
REMARK   26  A    between atoms: _62  and  _63
REMARK   27  A    between atoms: _62  and  _65
REMARK   28  A    between atoms: _67  and  _69
REMARK   29  A    between atoms: _69  and  _70
REMARK   30  A    between atoms: _69  and  _72
REMARK   31  A    between atoms: _72  and  _73
REMARK   32  A    between atoms: _73  and  _74
REMARK   33  A    between atoms: _74  and  _75
REMARK   34  A    between atoms: _75  and  _76
REMARK   35  A    between atoms: _80  and  _82
REMARK   36  A    between atoms: _82  and  _83
REMARK   37  A    between atoms: _82  and  _85
REMARK   38  A    between atoms: _85  and  _86
REMARK   39  A    between atoms: _91  and  _92
REMARK   40  A    between atoms: _94  and  _96
REMARK   41  A    between atoms: _96  and  _97
REMARK   42  A    between atoms: _99  and  _101
REMARK   43  A    between atoms: _101  and  _102
REMARK   44  A    between atoms: _105  and  _107
REMARK   45  A    between atoms: _107  and  _108
REMARK   46  A    between atoms: _107  and  _110
REMARK   47  A    between atoms: _110  and  _111
REMARK   48  A    between atoms: _121  and  _123
REMARK   49  A    between atoms: _123  and  _124
REMARK   50  A    between atoms: _126  and  _128
REMARK   51  A    between atoms: _128  and  _129
REMARK   52  A    between atoms: _128  and  _131
REMARK   53  A    between atoms: _131  and  _132
REMARK   54  A    between atoms: _132  and  _133
REMARK   55  A    between atoms: _135  and  _137
REMARK   56  A    between atoms: _137  and  _138
REMARK   57  A    between atoms: _137  and  _140
REMARK   58  A    between atoms: _143  and  _145
REMARK   59  A    between atoms: _145  and  _146
REMARK   60  A    between atoms: _150  and  _151
REMARK   61  A    between atoms: _156  and  _158
REMARK   62  A    between atoms: _158  and  _159
REMARK   63  A    between atoms: _158  and  _161
REMARK   64  A    between atoms: _161  and  _162
REMARK   65  A    between atoms: _165  and  _167
REMARK   66  A    between atoms: _167  and  _168
REMARK   67  A    between atoms: _167  and  _170
REMARK   68  A    between atoms: _170  and  _171
REMARK   69  A    between atoms: _174  and  _176
REMARK   70  A    between atoms: _176  and  _177
REMARK   71  A    between atoms: _176  and  _179
REMARK   72  A    between atoms: _179  and  _180
REMARK   73  A    between atoms: _183  and  _185
REMARK   74  A    between atoms: _185  and  _186
REMARK   75  A    between atoms: _185  and  _188
REMARK   76  A    between atoms: _188  and  _189
REMARK   77  A    between atoms: _192  and  _194
REMARK   78  A    between atoms: _194  and  _195
REMARK   79  A    between atoms: _194  and  _197
REMARK   80  A    between atoms: _197  and  _198
REMARK   81  A    between atoms: _198  and  _199
REMARK   82  A    between atoms: _199  and  _200
REMARK   83  A    between atoms: _209  and  _211
REMARK   84  A    between atoms: _211  and  _212
REMARK   85  A    between atoms: _211  and  _214
REMARK   86  A    between atoms: _214  and  _215
REMARK   87  A    between atoms: _221  and  _223
REMARK   88  A    between atoms: _223  and  _224
REMARK   89  A    between atoms: _223  and  _226
REMARK   90  A    between atoms: _226  and  _227
REMARK   91  A    between atoms: _230  and  _232
REMARK   92  A    between atoms: _232  and  _233
REMARK   93  A    between atoms: _235  and  _237
REMARK   94  A    between atoms: _237  and  _238
REMARK   95  A    between atoms: _237  and  _240
REMARK   96  A    between atoms: _240  and  _241
REMARK   97  A    between atoms: _244  and  _246
REMARK   98  A    between atoms: _246  and  _247
REMARK   99  A    between atoms: _246  and  _249
REMARK  100  A    between atoms: _249  and  _250
REMARK  101  A    between atoms: _252  and  _254
REMARK  102  A    between atoms: _254  and  _255
REMARK  103  A    between atoms: _254  and  _257
REMARK  104  A    between atoms: _257  and  _258
REMARK  105  A    between atoms: _261  and  _263
REMARK  106  A    between atoms: _263  and  _264
REMARK  107  A    between atoms: _267  and  _269
REMARK  108  A    between atoms: _269  and  _270
REMARK  109  A    between atoms: _269  and  _272
REMARK  110  A    between atoms: _275  and  _277
REMARK  111  A    between atoms: _277  and  _278
REMARK  112  A    between atoms: _277  and  _280
REMARK  113  A    between atoms: _280  and  _281
REMARK  114  A    between atoms: _281  and  _282
REMARK  115  A    between atoms: _282  and  _283
REMARK  116  A    between atoms: _292  and  _294
REMARK  117  A    between atoms: _294  and  _295
REMARK  118  A    between atoms: _294  and  _297
REMARK  119  A    between atoms: _297  and  _298
REMARK  120  A    between atoms: _301  and  _303
REMARK  121  A    between atoms: _303  and  _304
REMARK  122  A    between atoms: _306  and  _308
REMARK  123  A    between atoms: _308  and  _309
REMARK  124  A    between atoms: _308  and  _311
REMARK  125  A    between atoms: _311  and  _312
REMARK  126  A    between atoms: _314  and  _316
REMARK  127  A    between atoms: _316  and  _317
REMARK  128  A    between atoms: _316  and  _319
REMARK  129  A    between atoms: _319  and  _320
REMARK  130  A    between atoms: _323  and  _325
REMARK  131  A    between atoms: _325  and  _326
REMARK  132  A    between atoms: _325  and  _328
REMARK  133  A    between atoms: _328  and  _329
REMARK  134  A    between atoms: _329  and  _330
REMARK  135  A    between atoms: _332  and  _334
REMARK  136  A    between atoms: _334  and  _335
REMARK  137  A    between atoms: _334  and  _337
REMARK  138  A    between atoms: _337  and  _338
REMARK  139  A    between atoms: _341  and  _343
REMARK  140  A    between atoms: _343  and  _344
REMARK  141  A    between atoms: _343  and  _346
REMARK  142  A    between atoms: _346  and  _347
REMARK  143  A    between atoms: _353  and  _355
REMARK  144  A    between atoms: _355  and  _356
REMARK  145  A    between atoms: _355  and  _358
REMARK  146  A    between atoms: _358  and  _359
REMARK  147  A    between atoms: _365  and  _367
REMARK  148  A    between atoms: _367  and  _368
REMARK  149  A    between atoms: _367  and  _370
REMARK  150  A    between atoms: _373  and  _375
REMARK  151  A    between atoms: _375  and  _376
REMARK  152  A    between atoms: _375  and  _378
REMARK  153  A    between atoms: _378  and  _379
REMARK  154  A    between atoms: _379  and  _380
REMARK  155  A    between atoms: _380  and  _381
REMARK  156  A    between atoms: _390  and  _392
REMARK  157  A    between atoms: _392  and  _393
REMARK  158  A    between atoms: _392  and  _395
REMARK  159  A    between atoms: _395  and  _396
REMARK  160  A    between atoms: _401  and  _403
REMARK  161  A    between atoms: _403  and  _404
REMARK  162  A    between atoms: _403  and  _406
REMARK  163  A    between atoms: _406  and  _407
REMARK  164  A    between atoms: _409  and  _411
REMARK  165  A    between atoms: _411  and  _412
REMARK  166  A    between atoms: _411  and  _414
REMARK  167  A    between atoms: _414  and  _415
REMARK  168  A    between atoms: _418  and  _420
REMARK  169  A    between atoms: _420  and  _421
REMARK  170  A    between atoms: _423  and  _425
REMARK  171  A    between atoms: _425  and  _426
REMARK  172  A    between atoms: _425  and  _428
REMARK  173  A    between atoms: _428  and  _429
REMARK  174  A    between atoms: _432  and  _434
REMARK  175  A    between atoms: _434  and  _435
REMARK  176  A    between atoms: _434  and  _437
REMARK  177  A    between atoms: _437  and  _438
REMARK  178  A    between atoms: _441  and  _443
REMARK  179  A    between atoms: _443  and  _444
REMARK  180  A    between atoms: _443  and  _446
REMARK  181  A    between atoms: _446  and  _447
REMARK  182  A    between atoms: _450  and  _452
REMARK  183  A    between atoms: _452  and  _453
REMARK  184  A    between atoms: _452  and  _455
REMARK  185  A    between atoms: _455  and  _456
REMARK  186  A    between atoms: _456  and  _457
REMARK  187  A    between atoms: _459  and  _461
REMARK  188  A    between atoms: _461  and  _462
REMARK  189  A    between atoms: _461  and  _464
REMARK  190  A    between atoms: _464  and  _465
REMARK  191  A    between atoms: _465  and  _466
REMARK  192  A    between atoms: _469  and  _471
REMARK  193  A    between atoms: _471  and  _472
REMARK  194  A    between atoms: _471  and  _474
REMARK  195  A    between atoms: _474  and  _475
REMARK  196  A    between atoms: _477  and  _479
REMARK  197  A    between atoms: _479  and  _480
REMARK  198  A    between atoms: _479  and  _482
REMARK  199  A    between atoms: _482  and  _483
REMARK  200  A    between atoms: _486  and  _488
REMARK  201  A    between atoms: _488  and  _489
REMARK  202  A    between atoms: _488  and  _491
REMARK  203  A    between atoms: _491  and  _492
REMARK  204  A    between atoms: _494  and  _496
REMARK  205  A    between atoms: _496  and  _497
REMARK  206  A    between atoms: _496  and  _499
REMARK  207  A    between atoms: _499  and  _500
REMARK  208  A    between atoms: _503  and  _505
REMARK  209  A    between atoms: _505  and  _506
REMARK  210  A    between atoms: _505  and  _508
REMARK  211  A    between atoms: _508  and  _509
REMARK  212  A    between atoms: _514  and  _515
REMARK  213  A    between atoms: _517  and  _519
REMARK  214  A    between atoms: _519  and  _520
REMARK  215  A    between atoms: _519  and  _522
REMARK  216  A    between atoms: _525  and  _527
REMARK  217  A    between atoms: _527  and  _528
REMARK  218  A    between atoms: _527  and  _530
REMARK  219  A    between atoms: _530  and  _531
REMARK  220  A    between atoms: _531  and  _532
REMARK  221  A    between atoms: _532  and  _533
REMARK  222  A    between atoms: _533  and  _534
REMARK  223  A    between atoms: _538  and  _540
REMARK  224  A    between atoms: _540  and  _541
REMARK  225  A    between atoms: _543  and  _545
REMARK  226  A    between atoms: _545  and  _546
REMARK  227  A    between atoms: _545  and  _548
REMARK  228  A    between atoms: _548  and  _549
REMARK  229  A    between atoms: _554  and  _555
REMARK  230  A    between atoms: _557  and  _559
REMARK  231  A    between atoms: _559  and  _560
REMARK  232  A    between atoms: _562  and  _564
REMARK  233  A    between atoms: _564  and  _565
REMARK  234  A    between atoms: _564  and  _567
REMARK  235  A    between atoms: _567  and  _568
REMARK                            x       y       z     vdW  Elec       q    Type
REMARK                         _______ _______ _______ _____ _____    ______ ____
ROOT
ATOM      1  O   HOH     1      -4.322  21.410  13.912  0.00  0.00    +0.000 OA
ENDROOT
TORSDOF 0
REMARK  Name = ../refined-set-2016/3fv1/3fv1_pocket.pdb
REMARK  235 active torsions:
REMARK  status: ('A' for Active; 'I' for Inactive)
REMARK    1  A    between atoms: _1  and  _3
REMARK    2  A    between atoms: _3  and  _4
REMARK    3  A    between atoms: _3  and  _6
REMARK    4  A    between atoms: _6  and  _7
REMARK    5  A    between atoms: _10  and  _12
REMARK    6  A    between atoms: _12  and  _13
REMARK    7  A    between atoms: _12  and  _15
REMARK    8  A    between atoms: _15  and  _16
REMARK    9  A    between atoms: _19  and  _21
REMARK   10  A    between atoms: _21  and  _22
REMARK   11  A    between atoms: _21  and  _24
REMARK   12  A    between atoms: _24  and  _25
REMARK   13  A    between atoms: _25  and  _26
REMARK   14  A    between atoms: _29  and  _31
REMARK   15  A    between atoms: _31  and  _32
REMARK   16  A    between atoms: _31  and  _34
REMARK   17  A    between atoms: _34  and  _35
REMARK   18  A    between atoms: _35  and  _36
REMARK   19  A    between atoms: _40  and  _41
REMARK   20  A    between atoms: _46  and  _48
REMARK   21  A    between atoms: _48  and  _49
REMARK   22  A    between atoms: _48  and  _51
REMARK   23  A    between atoms: _51  and  _52
REMARK   24  A    between atoms: _57  and  _58
REMARK   25  A    between atoms: _60  and  _62
REMARK   26  A    between atoms: _62  and  _63
REMARK   27  A    between atoms: _62  and  _65
REMARK   28  A    between atoms: _67  and  _69
REMARK   29  A    between atoms: _69  and  _70
REMARK   30  A    between atoms: _69  and  _72
REMARK   31  A    between atoms: _72  and  _73
REMARK   32  A    between atoms: _73  and  _74
REMARK   33  A    between atoms: _74  and  _75
REMARK   34  A    between atoms: _75  and  _76
REMARK   35  A    between atoms: _80  and  _82
REMARK   36  A    between atoms: _82  and  _83
REMARK   37  A    between atoms: _82  and  _85
REMARK   38  A    between atoms: _85  and  _86
REMARK   39  A    between atoms: _91  and  _92
REMARK   40  A    between atoms: _94  and  _96
REMARK   41  A    between atoms: _96  and  _97
REMARK   42  A    between atoms: _99  and  _101
REMARK   43  A    between atoms: _101  and  _102
REMARK   44  A    between atoms: _105  and  _107
REMARK   45  A    between atoms: _107  and  _108
REMARK   46  A    between atoms: _107  and  _110
REMARK   47  A    between atoms: _110  and  _111
REMARK   48  A    between atoms: _121  and  _123
REMARK   49  A    between atoms: _123  and  _124
REMARK   50  A    between atoms: _126  and  _128
REMARK   51  A    between atoms: _128  and  _129
REMARK   52  A    between atoms: _128  and  _131
REMARK   53  A    between atoms: _131  and  _132
REMARK   54  A    between atoms: _132  and  _133
REMARK   55  A    between atoms: _135  and  _137
REMARK   56  A    between atoms: _137  and  _138
REMARK   57  A    between atoms: _137  and  _140
REMARK   58  A    between atoms: _143  and  _145
REMARK   59  A    between atoms: _145  and  _146
REMARK   60  A    between atoms: _150  and  _151
REMARK   61  A    between atoms: _156  and  _158
REMARK   62  A    between atoms: _158  and  _159
REMARK   63  A    between atoms: _158  and  _161
REMARK   64  A    between atoms: _161  and  _162
REMARK   65  A    between atoms: _165  and  _167
REMARK   66  A    between atoms: _167  and  _168
REMARK   67  A    between atoms: _167  and  _170
REMARK   68  A    between atoms: _170  and  _171
REMARK   69  A    between atoms: _174  and  _176
REMARK   70  A    between atoms: _176  and  _177
REMARK   71  A    between atoms: _176  and  _179
REMARK   72  A    between atoms: _179  and  _180
REMARK   73  A    between atoms: _183  and  _185
REMARK   74  A    between atoms: _185  and  _186
REMARK   75  A    between atoms: _185  and  _188
REMARK   76  A    between atoms: _188  and  _189
REMARK   77  A    between atoms: _192  and  _194
REMARK   78  A    between atoms: _194  and  _195
REMARK   79  A    between atoms: _194  and  _197
REMARK   80  A    between atoms: _197  and  _198
REMARK   81  A    between atoms: _198  and  _199
REMARK   82  A    between atoms: _199  and  _200
REMARK   83  A    between atoms: _209  and  _211
REMARK   84  A    between atoms: _211  and  _212
REMARK   85  A    between atoms: _211  and  _214
REMARK   86  A    between atoms: _214  and  _215
REMARK   87  A    between atoms: _221  and  _223
REMARK   88  A    between atoms: _223  and  _224
REMARK   89  A    between atoms: _223  and  _226
REMARK   90  A    between atoms: _226  and  _227
REMARK   91  A    between atoms: _230  and  _232
REMARK   92  A    between atoms: _232  and  _233
REMARK   93  A    between atoms: _235  and  _237
REMARK   94  A    between atoms: _237  and  _238
REMARK   95  A    between atoms: _237  and  _240
REMARK   96  A    between atoms: _240  and  _241
REMARK   97  A    between atoms: _244  and  _246
REMARK   98  A    between atoms: _246  and  _247
REMARK   99  A    between atoms: _246  and  _249
REMARK  100  A    between atoms: _249  and  _250
REMARK  101  A    between atoms: _252  and  _254
REMARK  102  A    between atoms: _254  and  _255
REMARK  103  A    between atoms: _254  and  _257
REMARK  104  A    between atoms: _257  and  _258
REMARK  105  A    between atoms: _261  and  _263
REMARK  106  A    between atoms: _263  and  _264
REMARK  107  A    between atoms: _267  and  _269
REMARK  108  A    between atoms: _269  and  _270
REMARK  109  A    between atoms: _269  and  _272
REMARK  110  A    between atoms: _275  and  _277
REMARK  111  A    between atoms: _277  and  _278
REMARK  112  A    between atoms: _277  and  _280
REMARK  113  A    between atoms: _280  and  _281
REMARK  114  A    between atoms: _281  and  _282
REMARK  115  A    between atoms: _282  and  _283
REMARK  116  A    between atoms: _292  and  _294
REMARK  117  A    between atoms: _294  and  _295
REMARK  118  A    between atoms: _294  and  _297
REMARK  119  A    between atoms: _297  and  _298
REMARK  120  A    between atoms: _301  and  _303
REMARK  121  A    between atoms: _303  and  _304
REMARK  122  A    between atoms: _306  and  _308
REMARK  123  A    between atoms: _308  and  _309
REMARK  124  A    between atoms: _308  and  _311
REMARK  125  A    between atoms: _311  and  _312
REMARK  126  A    between atoms: _314  and  _316
REMARK  127  A    between atoms: _316  and  _317
REMARK  128  A    between atoms: _316  and  _319
REMARK  129  A    between atoms: _319  and  _320
REMARK  130  A    between atoms: _323  and  _325
REMARK  131  A    between atoms: _325  and  _326
REMARK  132  A    between atoms: _325  and  _328
REMARK  133  A    between atoms: _328  and  _329
REMARK  134  A    between atoms: _329  and  _330
REMARK  135  A    between atoms: _332  and  _334
REMARK  136  A    between atoms: _334  and  _335
REMARK  137  A    between atoms: _334  and  _337
REMARK  138  A    between atoms: _337  and  _338
REMARK  139  A    between atoms: _341  and  _343
REMARK  140  A    between atoms: _343  and  _344
REMARK  141  A    between atoms: _343  and  _346
REMARK  142  A    between atoms: _346  and  _347
REMARK  143  A    between atoms: _353  and  _355
REMARK  144  A    between atoms: _355  and  _356
REMARK  145  A    between atoms: _355  and  _358
REMARK  146  A    between atoms: _358  and  _359
REMARK  147  A    between atoms: _365  and  _367
REMARK  148  A    between atoms: _367  and  _368
REMARK  149  A    between atoms: _367  and  _370
REMARK  150  A    between atoms: _373  and  _375
REMARK  151  A    between atoms: _375  and  _376
REMARK  152  A    between atoms: _375  and  _378
REMARK  153  A    between atoms: _378  and  _379
REMARK  154  A    between atoms: _379  and  _380
REMARK  155  A    between atoms: _380  and  _381
REMARK  156  A    between atoms: _390  and  _392
REMARK  157  A    between atoms: _392  and  _393
REMARK  158  A    between atoms: _392  and  _395
REMARK  159  A    between atoms: _395  and  _396
REMARK  160  A    between atoms: _401  and  _403
REMARK  161  A    between atoms: _403  and  _404
REMARK  162  A    between atoms: _403  and  _406
REMARK  163  A    between atoms: _406  and  _407
REMARK  164  A    between atoms: _409  and  _411
REMARK  165  A    between atoms: _411  and  _412
REMARK  166  A    between atoms: _411  and  _414
REMARK  167  A    between atoms: _414  and  _415
REMARK  168  A    between atoms: _418  and  _420
REMARK  169  A    between atoms: _420  and  _421
REMARK  170  A    between atoms: _423  and  _425
REMARK  171  A    between atoms: _425  and  _426
REMARK  172  A    between atoms: _425  and  _428
REMARK  173  A    between atoms: _428  and  _429
REMARK  174  A    between atoms: _432  and  _434
REMARK  175  A    between atoms: _434  and  _435
REMARK  176  A    between atoms: _434  and  _437
REMARK  177  A    between atoms: _437  and  _438
REMARK  178  A    between atoms: _441  and  _443
REMARK  179  A    between atoms: _443  and  _444
REMARK  180  A    between atoms: _443  and  _446
REMARK  181  A    between atoms: _446  and  _447
REMARK  182  A    between atoms: _450  and  _452
REMARK  183  A    between atoms: _452  and  _453
REMARK  184  A    between atoms: _452  and  _455
REMARK  185  A    between atoms: _455  and  _456
REMARK  186  A    between atoms: _456  and  _457
REMARK  187  A    between atoms: _459  and  _461
REMARK  188  A    between atoms: _461  and  _462
REMARK  189  A    between atoms: _461  and  _464
REMARK  190  A    between atoms: _464  and  _465
REMARK  191  A    between atoms: _465  and  _466
REMARK  192  A    between atoms: _469  and  _471
REMARK  193  A    between atoms: _471  and  _472
REMARK  194  A    between atoms: _471  and  _474
REMARK  195  A    between atoms: _474  and  _475
REMARK  196  A    between atoms: _477  and  _479
REMARK  197  A    between atoms: _479  and  _480
REMARK  198  A    between atoms: _479  and  _482
REMARK  199  A    between atoms: _482  and  _483
REMARK  200  A    between atoms: _486  and  _488
REMARK  201  A    between atoms: _488  and  _489
REMARK  202  A    between atoms: _488  and  _491
REMARK  203  A    between atoms: _491  and  _492
REMARK  204  A    between atoms: _494  and  _496
REMARK  205  A    between atoms: _496  and  _497
REMARK  206  A    between atoms: _496  and  _499
REMARK  207  A    between atoms: _499  and  _500
REMARK  208  A    between atoms: _503  and  _505
REMARK  209  A    between atoms: _505  and  _506
REMARK  210  A    between atoms: _505  and  _508
REMARK  211  A    between atoms: _508  and  _509
REMARK  212  A    between atoms: _514  and  _515
REMARK  213  A    between atoms: _517  and  _519
REMARK  214  A    between atoms: _519  and  _520
REMARK  215  A    between atoms: _519  and  _522
REMARK  216  A    between atoms: _525  and  _527
REMARK  217  A    between atoms: _527  and  _528
REMARK  218  A    between atoms: _527  and  _530
REMARK  219  A    between atoms: _530  and  _531
REMARK  220  A    between atoms: _531  and  _532
REMARK  221  A    between atoms: _532  and  _533
REMARK  222  A    between atoms: _533  and  _534
REMARK  223  A    between atoms: _538  and  _540
REMARK  224  A    between atoms: _540  and  _541
REMARK  225  A    between atoms: _543  and  _545
REMARK  226  A    between atoms: _545  and  _546
REMARK  227  A    between atoms: _545  and  _548
REMARK  228  A    between atoms: _548  and  _549
REMARK  229  A    between atoms: _554  and  _555
REMARK  230  A    between atoms: _557  and  _559
REMARK  231  A    between atoms: _559  and  _560
REMARK  232  A    between atoms: _562  and  _564
REMARK  233  A    between atoms: _564  and  _565
REMARK  234  A    between atoms: _564  and  _567
REMARK  235  A    between atoms: _567  and  _568
REMARK                            x       y       z     vdW  Elec       q    Type
REMARK                         _______ _______ _______ _____ _____    ______ ____
ROOT
ATOM      1  O   HOH     1      -7.892  13.411  26.024  0.00  0.00    +0.000 OA
ENDROOT
TORSDOF 0
REMARK  Name = ../refined-set-2016/3fv1/3fv1_pocket.pdb
REMARK  235 active torsions:
REMARK  status: ('A' for Active; 'I' for Inactive)
REMARK    1  A    between atoms: _1  and  _3
REMARK    2  A    between atoms: _3  and  _4
REMARK    3  A    between atoms: _3  and  _6
REMARK    4  A    between atoms: _6  and  _7
REMARK    5  A    between atoms: _10  and  _12
REMARK    6  A    between atoms: _12  and  _13
REMARK    7  A    between atoms: _12  and  _15
REMARK    8  A    between atoms: _15  and  _16
REMARK    9  A    between atoms: _19  and  _21
REMARK   10  A    between atoms: _21  and  _22
REMARK   11  A    between atoms: _21  and  _24
REMARK   12  A    between atoms: _24  and  _25
REMARK   13  A    between atoms: _25  and  _26
REMARK   14  A    between atoms: _29  and  _31
REMARK   15  A    between atoms: _31  and  _32
REMARK   16  A    between atoms: _31  and  _34
REMARK   17  A    between atoms: _34  and  _35
REMARK   18  A    between atoms: _35  and  _36
REMARK   19  A    between atoms: _40  and  _41
REMARK   20  A    between atoms: _46  and  _48
REMARK   21  A    between atoms: _48  and  _49
REMARK   22  A    between atoms: _48  and  _51
REMARK   23  A    between atoms: _51  and  _52
REMARK   24  A    between atoms: _57  and  _58
REMARK   25  A    between atoms: _60  and  _62
REMARK   26  A    between atoms: _62  and  _63
REMARK   27  A    between atoms: _62  and  _65
REMARK   28  A    between atoms: _67  and  _69
REMARK   29  A    between atoms: _69  and  _70
REMARK   30  A    between atoms: _69  and  _72
REMARK   31  A    between atoms: _72  and  _73
REMARK   32  A    between atoms: _73  and  _74
REMARK   33  A    between atoms: _74  and  _75
REMARK   34  A    between atoms: _75  and  _76
REMARK   35  A    between atoms: _80  and  _82
REMARK   36  A    between atoms: _82  and  _83
REMARK   37  A    between atoms: _82  and  _85
REMARK   38  A    between atoms: _85  and  _86
REMARK   39  A    between atoms: _91  and  _92
REMARK   40  A    between atoms: _94  and  _96
REMARK   41  A    between atoms: _96  and  _97
REMARK   42  A    between atoms: _99  and  _101
REMARK   43  A    between atoms: _101  and  _102
REMARK   44  A    between atoms: _105  and  _107
REMARK   45  A    between atoms: _107  and  _108
REMARK   46  A    between atoms: _107  and  _110
REMARK   47  A    between atoms: _110  and  _111
REMARK   48  A    between atoms: _121  and  _123
REMARK   49  A    between atoms: _123  and  _124
REMARK   50  A    between atoms: _126  and  _128
REMARK   51  A    between atoms: _128  and  _129
REMARK   52  A    between atoms: _128  and  _131
REMARK   53  A    between atoms: _131  and  _132
REMARK   54  A    between atoms: _132  and  _133
REMARK   55  A    between atoms: _135  and  _137
REMARK   56  A    between atoms: _137  and  _138
REMARK   57  A    between atoms: _137  and  _140
REMARK   58  A    between atoms: _143  and  _145
REMARK   59  A    between atoms: _145  and  _146
REMARK   60  A    between atoms: _150  and  _151
REMARK   61  A    between atoms: _156  and  _158
REMARK   62  A    between atoms: _158  and  _159
REMARK   63  A    between atoms: _158  and  _161
REMARK   64  A    between atoms: _161  and  _162
REMARK   65  A    between atoms: _165  and  _167
REMARK   66  A    between atoms: _167  and  _168
REMARK   67  A    between atoms: _167  and  _170
REMARK   68  A    between atoms: _170  and  _171
REMARK   69  A    between atoms: _174  and  _176
REMARK   70  A    between atoms: _176  and  _177
REMARK   71  A    between atoms: _176  and  _179
REMARK   72  A    between atoms: _179  and  _180
REMARK   73  A    between atoms: _183  and  _185
REMARK   74  A    between atoms: _185  and  _186
REMARK   75  A    between atoms: _185  and  _188
REMARK   76  A    between atoms: _188  and  _189
REMARK   77  A    between atoms: _192  and  _194
REMARK   78  A    between atoms: _194  and  _195
REMARK   79  A    between atoms: _194  and  _197
REMARK   80  A    between atoms: _197  and  _198
REMARK   81  A    between atoms: _198  and  _199
REMARK   82  A    between atoms: _199  and  _200
REMARK   83  A    between atoms: _209  and  _211
REMARK   84  A    between atoms: _211  and  _212
REMARK   85  A    between atoms: _211  and  _214
REMARK   86  A    between atoms: _214  and  _215
REMARK   87  A    between atoms: _221  and  _223
REMARK   88  A    between atoms: _223  and  _224
REMARK   89  A    between atoms: _223  and  _226
REMARK   90  A    between atoms: _226  and  _227
REMARK   91  A    between atoms: _230  and  _232
REMARK   92  A    between atoms: _232  and  _233
REMARK   93  A    between atoms: _235  and  _237
REMARK   94  A    between atoms: _237  and  _238
REMARK   95  A    between atoms: _237  and  _240
REMARK   96  A    between atoms: _240  and  _241
REMARK   97  A    between atoms: _244  and  _246
REMARK   98  A    between atoms: _246  and  _247
REMARK   99  A    between atoms: _246  and  _249
REMARK  100  A    between atoms: _249  and  _250
REMARK  101  A    between atoms: _252  and  _254
REMARK  102  A    between atoms: _254  and  _255
REMARK  103  A    between atoms: _254  and  _257
REMARK  104  A    between atoms: _257  and  _258
REMARK  105  A    between atoms: _261  and  _263
REMARK  106  A    between atoms: _263  and  _264
REMARK  107  A    between atoms: _267  and  _269
REMARK  108  A    between atoms: _269  and  _270
REMARK  109  A    between atoms: _269  and  _272
REMARK  110  A    between atoms: _275  and  _277
REMARK  111  A    between atoms: _277  and  _278
REMARK  112  A    between atoms: _277  and  _280
REMARK  113  A    between atoms: _280  and  _281
REMARK  114  A    between atoms: _281  and  _282
REMARK  115  A    between atoms: _282  and  _283
REMARK  116  A    between atoms: _292  and  _294
REMARK  117  A    between atoms: _294  and  _295
REMARK  118  A    between atoms: _294  and  _297
REMARK  119  A    between atoms: _297  and  _298
REMARK  120  A    between atoms: _301  and  _303
REMARK  121  A    between atoms: _303  and  _304
REMARK  122  A    between atoms: _306  and  _308
REMARK  123  A    between atoms: _308  and  _309
REMARK  124  A    between atoms: _308  and  _311
REMARK  125  A    between atoms: _311  and  _312
REMARK  126  A    between atoms: _314  and  _316
REMARK  127  A    between atoms: _316  and  _317
REMARK  128  A    between atoms: _316  and  _319
REMARK  129  A    between atoms: _319  and  _320
REMARK  130  A    between atoms: _323  and  _325
REMARK  131  A    between atoms: _325  and  _326
REMARK  132  A    between atoms: _325  and  _328
REMARK  133  A    between atoms: _328  and  _329
REMARK  134  A    between atoms: _329  and  _330
REMARK  135  A    between atoms: _332  and  _334
REMARK  136  A    between atoms: _334  and  _335
REMARK  137  A    between atoms: _334  and  _337
REMARK  138  A    between atoms: _337  and  _338
REMARK  139  A    between atoms: _341  and  _343
REMARK  140  A    between atoms: _343  and  _344
REMARK  141  A    between atoms: _343  and  _346
REMARK  142  A    between atoms: _346  and  _347
REMARK  143  A    between atoms: _353  and  _355
REMARK  144  A    between atoms: _355  and  _356
REMARK  145  A    between atoms: _355  and  _358
REMARK  146  A    between atoms: _358  and  _359
REMARK  147  A    between atoms: _365  and  _367
REMARK  148  A    between atoms: _367  and  _368
REMARK  149  A    between atoms: _367  and  _370
REMARK  150  A    between atoms: _373  and  _375
REMARK  151  A    between atoms: _375  and  _376
REMARK  152  A    between atoms: _375  and  _378
REMARK  153  A    between atoms: _378  and  _379
REMARK  154  A    between atoms: _379  and  _380
REMARK  155  A    between atoms: _380  and  _381
REMARK  156  A    between atoms: _390  and  _392
REMARK  157  A    between atoms: _392  and  _393
REMARK  158  A    between atoms: _392  and  _395
REMARK  159  A    between atoms: _395  and  _396
REMARK  160  A    between atoms: _401  and  _403
REMARK  161  A    between atoms: _403  and  _404
REMARK  162  A    between atoms: _403  and  _406
REMARK  163  A    between atoms: _406  and  _407
REMARK  164  A    between atoms: _409  and  _411
REMARK  165  A    between atoms: _411  and  _412
REMARK  166  A    between atoms: _411  and  _414
REMARK  167  A    between atoms: _414  and  _415
REMARK  168  A    between atoms: _418  and  _420
REMARK  169  A    between atoms: _420  and  _421
REMARK  170  A    between atoms: _423  and  _425
REMARK  171  A    between atoms: _425  and  _426
REMARK  172  A    between atoms: _425  and  _428
REMARK  173  A    between atoms: _428  and  _429
REMARK  174  A    between atoms: _432  and  _434
REMARK  175  A    between atoms: _434  and  _435
REMARK  176  A    between atoms: _434  and  _437
REMARK  177  A    between atoms: _437  and  _438
REMARK  178  A    between atoms: _441  and  _443
REMARK  179  A    between atoms: _443  and  _444
REMARK  180  A    between atoms: _443  and  _446
REMARK  181  A    between atoms: _446  and  _447
REMARK  182  A    between atoms: _450  and  _452
REMARK  183  A    between atoms: _452  and  _453
REMARK  184  A    between atoms: _452  and  _455
REMARK  185  A    between atoms: _455  and  _456
REMARK  186  A    between atoms: _456  and  _457
REMARK  187  A    between atoms: _459  and  _461
REMARK  188  A    between atoms: _461  and  _462
REMARK  189  A    between atoms: _461  and  _464
REMARK  190  A    between atoms: _464  and  _465
REMARK  191  A    between atoms: _465  and  _466
REMARK  192  A    between atoms: _469  and  _471
REMARK  193  A    between atoms: _471  and  _472
REMARK  194  A    between atoms: _471  and  _474
REMARK  195  A    between atoms: _474  and  _475
REMARK  196  A    between atoms: _477  and  _479
REMARK  197  A    between atoms: _479  and  _480
REMARK  198  A    between atoms: _479  and  _482
REMARK  199  A    between atoms: _482  and  _483
REMARK  200  A    between atoms: _486  and  _488
REMARK  201  A    between atoms: _488  and  _489
REMARK  202  A    between atoms: _488  and  _491
REMARK  203  A    between atoms: _491  and  _492
REMARK  204  A    between atoms: _494  and  _496
REMARK  205  A    between atoms: _496  and  _497
REMARK  206  A    between atoms: _496  and  _499
REMARK  207  A    between atoms: _499  and  _500
REMARK  208  A    between atoms: _503  and  _505
REMARK  209  A    between atoms: _505  and  _506
REMARK  210  A    between atoms: _505  and  _508
REMARK  211  A    between atoms: _508  and  _509
REMARK  212  A    between atoms: _514  and  _515
REMARK  213  A    between atoms: _517  and  _519
REMARK  214  A    between atoms: _519  and  _520
REMARK  215  A    between atoms: _519  and  _522
REMARK  216  A    between atoms: _525  and  _527
REMARK  217  A    between atoms: _527  and  _528
REMARK  218  A    between atoms: _527  and  _530
REMARK  219  A    between atoms: _530  and  _531
REMARK  220  A    between atoms: _531  and  _532
REMARK  221  A    between atoms: _532  and  _533
REMARK  222  A    between atoms: _533  and  _534
REMARK  223  A    between atoms: _538  and  _540
REMARK  224  A    between atoms: _540  and  _541
REMARK  225  A    between atoms: _543  and  _545
REMARK  226  A    between atoms: _545  and  _546
REMARK  227  A    between atoms: _545  and  _548
REMARK  228  A    between atoms: _548  and  _549
REMARK  229  A    between atoms: _554  and  _555
REMARK  230  A    between atoms: _557  and  _559
REMARK  231  A    between atoms: _559  and  _560
REMARK  232  A    between atoms: _562  and  _564
REMARK  233  A    between atoms: _564  and  _565
REMARK  234  A    between atoms: _564  and  _567
REMARK  235  A    between atoms: _567  and  _568
REMARK                            x       y       z     vdW  Elec       q    Type
REMARK                         _______ _______ _______ _____ _____    ______ ____
ROOT
ATOM      1  O   HOH     1     -10.791   9.310  26.718  0.00  0.00    +0.000 OA
ENDROOT
TORSDOF 0
REMARK  Name = ../refined-set-2016/3fv1/3fv1_pocket.pdb
REMARK  235 active torsions:
REMARK  status: ('A' for Active; 'I' for Inactive)
REMARK    1  A    between atoms: _1  and  _3
REMARK    2  A    between atoms: _3  and  _4
REMARK    3  A    between atoms: _3  and  _6
REMARK    4  A    between atoms: _6  and  _7
REMARK    5  A    between atoms: _10  and  _12
REMARK    6  A    between atoms: _12  and  _13
REMARK    7  A    between atoms: _12  and  _15
REMARK    8  A    between atoms: _15  and  _16
REMARK    9  A    between atoms: _19  and  _21
REMARK   10  A    between atoms: _21  and  _22
REMARK   11  A    between atoms: _21  and  _24
REMARK   12  A    between atoms: _24  and  _25
REMARK   13  A    between atoms: _25  and  _26
REMARK   14  A    between atoms: _29  and  _31
REMARK   15  A    between atoms: _31  and  _32
REMARK   16  A    between atoms: _31  and  _34
REMARK   17  A    between atoms: _34  and  _35
REMARK   18  A    between atoms: _35  and  _36
REMARK   19  A    between atoms: _40  and  _41
REMARK   20  A    between atoms: _46  and  _48
REMARK   21  A    between atoms: _48  and  _49
REMARK   22  A    between atoms: _48  and  _51
REMARK   23  A    between atoms: _51  and  _52
REMARK   24  A    between atoms: _57  and  _58
REMARK   25  A    between atoms: _60  and  _62
REMARK   26  A    between atoms: _62  and  _63
REMARK   27  A    between atoms: _62  and  _65
REMARK   28  A    between atoms: _67  and  _69
REMARK   29  A    between atoms: _69  and  _70
REMARK   30  A    between atoms: _69  and  _72
REMARK   31  A    between atoms: _72  and  _73
REMARK   32  A    between atoms: _73  and  _74
REMARK   33  A    between atoms: _74  and  _75
REMARK   34  A    between atoms: _75  and  _76
REMARK   35  A    between atoms: _80  and  _82
REMARK   36  A    between atoms: _82  and  _83
REMARK   37  A    between atoms: _82  and  _85
REMARK   38  A    between atoms: _85  and  _86
REMARK   39  A    between atoms: _91  and  _92
REMARK   40  A    between atoms: _94  and  _96
REMARK   41  A    between atoms: _96  and  _97
REMARK   42  A    between atoms: _99  and  _101
REMARK   43  A    between atoms: _101  and  _102
REMARK   44  A    between atoms: _105  and  _107
REMARK   45  A    between atoms: _107  and  _108
REMARK   46  A    between atoms: _107  and  _110
REMARK   47  A    between atoms: _110  and  _111
REMARK   48  A    between atoms: _121  and  _123
REMARK   49  A    between atoms: _123  and  _124
REMARK   50  A    between atoms: _126  and  _128
REMARK   51  A    between atoms: _128  and  _129
REMARK   52  A    between atoms: _128  and  _131
REMARK   53  A    between atoms: _131  and  _132
REMARK   54  A    between atoms: _132  and  _133
REMARK   55  A    between atoms: _135  and  _137
REMARK   56  A    between atoms: _137  and  _138
REMARK   57  A    between atoms: _137  and  _140
REMARK   58  A    between atoms: _143  and  _145
REMARK   59  A    between atoms: _145  and  _146
REMARK   60  A    between atoms: _150  and  _151
REMARK   61  A    between atoms: _156  and  _158
REMARK   62  A    between atoms: _158  and  _159
REMARK   63  A    between atoms: _158  and  _161
REMARK   64  A    between atoms: _161  and  _162
REMARK   65  A    between atoms: _165  and  _167
REMARK   66  A    between atoms: _167  and  _168
REMARK   67  A    between atoms: _167  and  _170
REMARK   68  A    between atoms: _170  and  _171
REMARK   69  A    between atoms: _174  and  _176
REMARK   70  A    between atoms: _176  and  _177
REMARK   71  A    between atoms: _176  and  _179
REMARK   72  A    between atoms: _179  and  _180
REMARK   73  A    between atoms: _183  and  _185
REMARK   74  A    between atoms: _185  and  _186
REMARK   75  A    between atoms: _185  and  _188
REMARK   76  A    between atoms: _188  and  _189
REMARK   77  A    between atoms: _192  and  _194
REMARK   78  A    between atoms: _194  and  _195
REMARK   79  A    between atoms: _194  and  _197
REMARK   80  A    between atoms: _197  and  _198
REMARK   81  A    between atoms: _198  and  _199
REMARK   82  A    between atoms: _199  and  _200
REMARK   83  A    between atoms: _209  and  _211
REMARK   84  A    between atoms: _211  and  _212
REMARK   85  A    between atoms: _211  and  _214
REMARK   86  A    between atoms: _214  and  _215
REMARK   87  A    between atoms: _221  and  _223
REMARK   88  A    between atoms: _223  and  _224
REMARK   89  A    between atoms: _223  and  _226
REMARK   90  A    between atoms: _226  and  _227
REMARK   91  A    between atoms: _230  and  _232
REMARK   92  A    between atoms: _232  and  _233
REMARK   93  A    between atoms: _235  and  _237
REMARK   94  A    between atoms: _237  and  _238
REMARK   95  A    between atoms: _237  and  _240
REMARK   96  A    between atoms: _240  and  _241
REMARK   97  A    between atoms: _244  and  _246
REMARK   98  A    between atoms: _246  and  _247
REMARK   99  A    between atoms: _246  and  _249
REMARK  100  A    between atoms: _249  and  _250
REMARK  101  A    between atoms: _252  and  _254
REMARK  102  A    between atoms: _254  and  _255
REMARK  103  A    between atoms: _254  and  _257
REMARK  104  A    between atoms: _257  and  _258
REMARK  105  A    between atoms: _261  and  _263
REMARK  106  A    between atoms: _263  and  _264
REMARK  107  A    between atoms: _267  and  _269
REMARK  108  A    between atoms: _269  and  _270
REMARK  109  A    between atoms: _269  and  _272
REMARK  110  A    between atoms: _275  and  _277
REMARK  111  A    between atoms: _277  and  _278
REMARK  112  A    between atoms: _277  and  _280
REMARK  113  A    between atoms: _280  and  _281
REMARK  114  A    between atoms: _281  and  _282
REMARK  115  A    between atoms: _282  and  _283
REMARK  116  A    between atoms: _292  and  _294
REMARK  117  A    between atoms: _294  and  _295
REMARK  118  A    between atoms: _294  and  _297
REMARK  119  A    between atoms: _297  and  _298
REMARK  120  A    between atoms: _301  and  _303
REMARK  121  A    between atoms: _303  and  _304
REMARK  122  A    between atoms: _306  and  _308
REMARK  123  A    between atoms: _308  and  _309
REMARK  124  A    between atoms: _308  and  _311
REMARK  125  A    between atoms: _311  and  _312
REMARK  126  A    between atoms: _314  and  _316
REMARK  127  A    between atoms: _316  and  _317
REMARK  128  A    between atoms: _316  and  _319
REMARK  129  A    between atoms: _319  and  _320
REMARK  130  A    between atoms: _323  and  _325
REMARK  131  A    between atoms: _325  and  _326
REMARK  132  A    between atoms: _325  and  _328
REMARK  133  A    between atoms: _328  and  _329
REMARK  134  A    between atoms: _329  and  _330
REMARK  135  A    between atoms: _332  and  _334
REMARK  136  A    between atoms: _334  and  _335
REMARK  137  A    between atoms: _334  and  _337
REMARK  138  A    between atoms: _337  and  _338
REMARK  139  A    between atoms: _341  and  _343
REMARK  140  A    between atoms: _343  and  _344
REMARK  141  A    between atoms: _343  and  _346
REMARK  142  A    between atoms: _346  and  _347
REMARK  143  A    between atoms: _353  and  _355
REMARK  144  A    between atoms: _355  and  _356
REMARK  145  A    between atoms: _355  and  _358
REMARK  146  A    between atoms: _358  and  _359
REMARK  147  A    between atoms: _365  and  _367
REMARK  148  A    between atoms: _367  and  _368
REMARK  149  A    between atoms: _367  and  _370
REMARK  150  A    between atoms: _373  and  _375
REMARK  151  A    between atoms: _375  and  _376
REMARK  152  A    between atoms: _375  and  _378
REMARK  153  A    between atoms: _378  and  _379
REMARK  154  A    between atoms: _379  and  _380
REMARK  155  A    between atoms: _380  and  _381
REMARK  156  A    between atoms: _390  and  _392
REMARK  157  A    between atoms: _392  and  _393
REMARK  158  A    between atoms: _392  and  _395
REMARK  159  A    between atoms: _395  and  _396
REMARK  160  A    between atoms: _401  and  _403
REMARK  161  A    between atoms: _403  and  _404
REMARK  162  A    between atoms: _403  and  _406
REMARK  163  A    between atoms: _406  and  _407
REMARK  164  A    between atoms: _409  and  _411
REMARK  165  A    between atoms: _411  and  _412
REMARK  166  A    between atoms: _411  and  _414
REMARK  167  A    between atoms: _414  and  _415
REMARK  168  A    between atoms: _418  and  _420
REMARK  169  A    between atoms: _420  and  _421
REMARK  170  A    between atoms: _423  and  _425
REMARK  171  A    between atoms: _425  and  _426
REMARK  172  A    between atoms: _425  and  _428
REMARK  173  A    between atoms: _428  and  _429
REMARK  174  A    between atoms: _432  and  _434
REMARK  175  A    between atoms: _434  and  _435
REMARK  176  A    between atoms: _434  and  _437
REMARK  177  A    between atoms: _437  and  _438
REMARK  178  A    between atoms: _441  and  _443
REMARK  179  A    between atoms: _443  and  _444
REMARK  180  A    between atoms: _443  and  _446
REMARK  181  A    between atoms: _446  and  _447
REMARK  182  A    between atoms: _450  and  _452
REMARK  183  A    between atoms: _452  and  _453
REMARK  184  A    between atoms: _452  and  _455
REMARK  185  A    between atoms: _455  and  _456
REMARK  186  A    between atoms: _456  and  _457
REMARK  187  A    between atoms: _459  and  _461
REMARK  188  A    between atoms: _461  and  _462
REMARK  189  A    between atoms: _461  and  _464
REMARK  190  A    between atoms: _464  and  _465
REMARK  191  A    between atoms: _465  and  _466
REMARK  192  A    between atoms: _469  and  _471
REMARK  193  A    between atoms: _471  and  _472
REMARK  194  A    between atoms: _471  and  _474
REMARK  195  A    between atoms: _474  and  _475
REMARK  196  A    between atoms: _477  and  _479
REMARK  197  A    between atoms: _479  and  _480
REMARK  198  A    between atoms: _479  and  _482
REMARK  199  A    between atoms: _482  and  _483
REMARK  200  A    between atoms: _486  and  _488
REMARK  201  A    between atoms: _488  and  _489
REMARK  202  A    between atoms: _488  and  _491
REMARK  203  A    between atoms: _491  and  _492
REMARK  204  A    between atoms: _494  and  _496
REMARK  205  A    between atoms: _496  and  _497
REMARK  206  A    between atoms: _496  and  _499
REMARK  207  A    between atoms: _499  and  _500
REMARK  208  A    between atoms: _503  and  _505
REMARK  209  A    between atoms: _505  and  _506
REMARK  210  A    between atoms: _505  and  _508
REMARK  211  A    between atoms: _508  and  _509
REMARK  212  A    between atoms: _514  and  _515
REMARK  213  A    between atoms: _517  and  _519
REMARK  214  A    between atoms: _519  and  _520
REMARK  215  A    between atoms: _519  and  _522
REMARK  216  A    between atoms: _525  and  _527
REMARK  217  A    between atoms: _527  and  _528
REMARK  218  A    between atoms: _527  and  _530
REMARK  219  A    between atoms: _530  and  _531
REMARK  220  A    between atoms: _531  and  _532
REMARK  221  A    between atoms: _532  and  _533
REMARK  222  A    between atoms: _533  and  _534
REMARK  223  A    between atoms: _538  and  _540
REMARK  224  A    between atoms: _540  and  _541
REMARK  225  A    between atoms: _543  and  _545
REMARK  226  A    between atoms: _545  and  _546
REMARK  227  A    between atoms: _545  and  _548
REMARK  228  A    between atoms: _548  and  _549
REMARK  229  A    between atoms: _554  and  _555
REMARK  230  A    between atoms: _557  and  _559
REMARK  231  A    between atoms: _559  and  _560
REMARK  232  A    between atoms: _562  and  _564
REMARK  233  A    between atoms: _564  and  _565
REMARK  234  A    between atoms: _564  and  _567
REMARK  235  A    between atoms: _567  and  _568
REMARK                            x       y       z     vdW  Elec       q    Type
REMARK                         _______ _______ _______ _____ _____    ______ ____
ROOT
ATOM      1  O   HOH     1      -0.985  21.228  17.469  0.00  0.00    +0.000 OA
ENDROOT
TORSDOF 0
REMARK  Name = ../refined-set-2016/3fv1/3fv1_pocket.pdb
REMARK  235 active torsions:
REMARK  status: ('A' for Active; 'I' for Inactive)
REMARK    1  A    between atoms: _1  and  _3
REMARK    2  A    between atoms: _3  and  _4
REMARK    3  A    between atoms: _3  and  _6
REMARK    4  A    between atoms: _6  and  _7
REMARK    5  A    between atoms: _10  and  _12
REMARK    6  A    between atoms: _12  and  _13
REMARK    7  A    between atoms: _12  and  _15
REMARK    8  A    between atoms: _15  and  _16
REMARK    9  A    between atoms: _19  and  _21
REMARK   10  A    between atoms: _21  and  _22
REMARK   11  A    between atoms: _21  and  _24
REMARK   12  A    between atoms: _24  and  _25
REMARK   13  A    between atoms: _25  and  _26
REMARK   14  A    between atoms: _29  and  _31
REMARK   15  A    between atoms: _31  and  _32
REMARK   16  A    between atoms: _31  and  _34
REMARK   17  A    between atoms: _34  and  _35
REMARK   18  A    between atoms: _35  and  _36
REMARK   19  A    between atoms: _40  and  _41
REMARK   20  A    between atoms: _46  and  _48
REMARK   21  A    between atoms: _48  and  _49
REMARK   22  A    between atoms: _48  and  _51
REMARK   23  A    between atoms: _51  and  _52
REMARK   24  A    between atoms: _57  and  _58
REMARK   25  A    between atoms: _60  and  _62
REMARK   26  A    between atoms: _62  and  _63
REMARK   27  A    between atoms: _62  and  _65
REMARK   28  A    between atoms: _67  and  _69
REMARK   29  A    between atoms: _69  and  _70
REMARK   30  A    between atoms: _69  and  _72
REMARK   31  A    between atoms: _72  and  _73
REMARK   32  A    between atoms: _73  and  _74
REMARK   33  A    between atoms: _74  and  _75
REMARK   34  A    between atoms: _75  and  _76
REMARK   35  A    between atoms: _80  and  _82
REMARK   36  A    between atoms: _82  and  _83
REMARK   37  A    between atoms: _82  and  _85
REMARK   38  A    between atoms: _85  and  _86
REMARK   39  A    between atoms: _91  and  _92
REMARK   40  A    between atoms: _94  and  _96
REMARK   41  A    between atoms: _96  and  _97
REMARK   42  A    between atoms: _99  and  _101
REMARK   43  A    between atoms: _101  and  _102
REMARK   44  A    between atoms: _105  and  _107
REMARK   45  A    between atoms: _107  and  _108
REMARK   46  A    between atoms: _107  and  _110
REMARK   47  A    between atoms: _110  and  _111
REMARK   48  A    between atoms: _121  and  _123
REMARK   49  A    between atoms: _123  and  _124
REMARK   50  A    between atoms: _126  and  _128
REMARK   51  A    between atoms: _128  and  _129
REMARK   52  A    between atoms: _128  and  _131
REMARK   53  A    between atoms: _131  and  _132
REMARK   54  A    between atoms: _132  and  _133
REMARK   55  A    between atoms: _135  and  _137
REMARK   56  A    between atoms: _137  and  _138
REMARK   57  A    between atoms: _137  and  _140
REMARK   58  A    between atoms: _143  and  _145
REMARK   59  A    between atoms: _145  and  _146
REMARK   60  A    between atoms: _150  and  _151
REMARK   61  A    between atoms: _156  and  _158
REMARK   62  A    between atoms: _158  and  _159
REMARK   63  A    between atoms: _158  and  _161
REMARK   64  A    between atoms: _161  and  _162
REMARK   65  A    between atoms: _165  and  _167
REMARK   66  A    between atoms: _167  and  _168
REMARK   67  A    between atoms: _167  and  _170
REMARK   68  A    between atoms: _170  and  _171
REMARK   69  A    between atoms: _174  and  _176
REMARK   70  A    between atoms: _176  and  _177
REMARK   71  A    between atoms: _176  and  _179
REMARK   72  A    between atoms: _179  and  _180
REMARK   73  A    between atoms: _183  and  _185
REMARK   74  A    between atoms: _185  and  _186
REMARK   75  A    between atoms: _185  and  _188
REMARK   76  A    between atoms: _188  and  _189
REMARK   77  A    between atoms: _192  and  _194
REMARK   78  A    between atoms: _194  and  _195
REMARK   79  A    between atoms: _194  and  _197
REMARK   80  A    between atoms: _197  and  _198
REMARK   81  A    between atoms: _198  and  _199
REMARK   82  A    between atoms: _199  and  _200
REMARK   83  A    between atoms: _209  and  _211
REMARK   84  A    between atoms: _211  and  _212
REMARK   85  A    between atoms: _211  and  _214
REMARK   86  A    between atoms: _214  and  _215
REMARK   87  A    between atoms: _221  and  _223
REMARK   88  A    between atoms: _223  and  _224
REMARK   89  A    between atoms: _223  and  _226
REMARK   90  A    between atoms: _226  and  _227
REMARK   91  A    between atoms: _230  and  _232
REMARK   92  A    between atoms: _232  and  _233
REMARK   93  A    between atoms: _235  and  _237
REMARK   94  A    between atoms: _237  and  _238
REMARK   95  A    between atoms: _237  and  _240
REMARK   96  A    between atoms: _240  and  _241
REMARK   97  A    between atoms: _244  and  _246
REMARK   98  A    between atoms: _246  and  _247
REMARK   99  A    between atoms: _246  and  _249
REMARK  100  A    between atoms: _249  and  _250
REMARK  101  A    between atoms: _252  and  _254
REMARK  102  A    between atoms: _254  and  _255
REMARK  103  A    between atoms: _254  and  _257
REMARK  104  A    between atoms: _257  and  _258
REMARK  105  A    between atoms: _261  and  _263
REMARK  106  A    between atoms: _263  and  _264
REMARK  107  A    between atoms: _267  and  _269
REMARK  108  A    between atoms: _269  and  _270
REMARK  109  A    between atoms: _269  and  _272
REMARK  110  A    between atoms: _275  and  _277
REMARK  111  A    between atoms: _277  and  _278
REMARK  112  A    between atoms: _277  and  _280
REMARK  113  A    between atoms: _280  and  _281
REMARK  114  A    between atoms: _281  and  _282
REMARK  115  A    between atoms: _282  and  _283
REMARK  116  A    between atoms: _292  and  _294
REMARK  117  A    between atoms: _294  and  _295
REMARK  118  A    between atoms: _294  and  _297
REMARK  119  A    between atoms: _297  and  _298
REMARK  120  A    between atoms: _301  and  _303
REMARK  121  A    between atoms: _303  and  _304
REMARK  122  A    between atoms: _306  and  _308
REMARK  123  A    between atoms: _308  and  _309
REMARK  124  A    between atoms: _308  and  _311
REMARK  125  A    between atoms: _311  and  _312
REMARK  126  A    between atoms: _314  and  _316
REMARK  127  A    between atoms: _316  and  _317
REMARK  128  A    between atoms: _316  and  _319
REMARK  129  A    between atoms: _319  and  _320
REMARK  130  A    between atoms: _323  and  _325
REMARK  131  A    between atoms: _325  and  _326
REMARK  132  A    between atoms: _325  and  _328
REMARK  133  A    between atoms: _328  and  _329
REMARK  134  A    between atoms: _329  and  _330
REMARK  135  A    between atoms: _332  and  _334
REMARK  136  A    between atoms: _334  and  _335
REMARK  137  A    between atoms: _334  and  _337
REMARK  138  A    between atoms: _337  and  _338
REMARK  139  A    between atoms: _341  and  _343
REMARK  140  A    between atoms: _343  and  _344
REMARK  141  A    between atoms: _343  and  _346
REMARK  142  A    between atoms: _346  and  _347
REMARK  143  A    between atoms: _353  and  _355
REMARK  144  A    between atoms: _355  and  _356
REMARK  145  A    between atoms: _355  and  _358
REMARK  146  A    between atoms: _358  and  _359
REMARK  147  A    between atoms: _365  and  _367
REMARK  148  A    between atoms: _367  and  _368
REMARK  149  A    between atoms: _367  and  _370
REMARK  150  A    between atoms: _373  and  _375
REMARK  151  A    between atoms: _375  and  _376
REMARK  152  A    between atoms: _375  and  _378
REMARK  153  A    between atoms: _378  and  _379
REMARK  154  A    between atoms: _379  and  _380
REMARK  155  A    between atoms: _380  and  _381
REMARK  156  A    between atoms: _390  and  _392
REMARK  157  A    between atoms: _392  and  _393
REMARK  158  A    between atoms: _392  and  _395
REMARK  159  A    between atoms: _395  and  _396
REMARK  160  A    between atoms: _401  and  _403
REMARK  161  A    between atoms: _403  and  _404
REMARK  162  A    between atoms: _403  and  _406
REMARK  163  A    between atoms: _406  and  _407
REMARK  164  A    between atoms: _409  and  _411
REMARK  165  A    between atoms: _411  and  _412
REMARK  166  A    between atoms: _411  and  _414
REMARK  167  A    between atoms: _414  and  _415
REMARK  168  A    between atoms: _418  and  _420
REMARK  169  A    between atoms: _420  and  _421
REMARK  170  A    between atoms: _423  and  _425
REMARK  171  A    between atoms: _425  and  _426
REMARK  172  A    between atoms: _425  and  _428
REMARK  173  A    between atoms: _428  and  _429
REMARK  174  A    between atoms: _432  and  _434
REMARK  175  A    between atoms: _434  and  _435
REMARK  176  A    between atoms: _434  and  _437
REMARK  177  A    between atoms: _437  and  _438
REMARK  178  A    between atoms: _441  and  _443
REMARK  179  A    between atoms: _443  and  _444
REMARK  180  A    between atoms: _443  and  _446
REMARK  181  A    between atoms: _446  and  _447
REMARK  182  A    between atoms: _450  and  _452
REMARK  183  A    between atoms: _452  and  _453
REMARK  184  A    between atoms: _452  and  _455
REMARK  185  A    between atoms: _455  and  _456
REMARK  186  A    between atoms: _456  and  _457
REMARK  187  A    between atoms: _459  and  _461
REMARK  188  A    between atoms: _461  and  _462
REMARK  189  A    between atoms: _461  and  _464
REMARK  190  A    between atoms: _464  and  _465
REMARK  191  A    between atoms: _465  and  _466
REMARK  192  A    between atoms: _469  and  _471
REMARK  193  A    between atoms: _471  and  _472
REMARK  194  A    between atoms: _471  and  _474
REMARK  195  A    between atoms: _474  and  _475
REMARK  196  A    between atoms: _477  and  _479
REMARK  197  A    between atoms: _479  and  _480
REMARK  198  A    between atoms: _479  and  _482
REMARK  199  A    between atoms: _482  and  _483
REMARK  200  A    between atoms: _486  and  _488
REMARK  201  A    between atoms: _488  and  _489
REMARK  202  A    between atoms: _488  and  _491
REMARK  203  A    between atoms: _491  and  _492
REMARK  204  A    between atoms: _494  and  _496
REMARK  205  A    between atoms: _496  and  _497
REMARK  206  A    between atoms: _496  and  _499
REMARK  207  A    between atoms: _499  and  _500
REMARK  208  A    between atoms: _503  and  _505
REMARK  209  A    between atoms: _505  and  _506
REMARK  210  A    between atoms: _505  and  _508
REMARK  211  A    between atoms: _508  and  _509
REMARK  212  A    between atoms: _514  and  _515
REMARK  213  A    between atoms: _517  and  _519
REMARK  214  A    between atoms: _519  and  _520
REMARK  215  A    between atoms: _519  and  _522
REMARK  216  A    between atoms: _525  and  _527
REMARK  217  A    between atoms: _527  and  _528
REMARK  218  A    between atoms: _527  and  _530
REMARK  219  A    between atoms: _530  and  _531
REMARK  220  A    between atoms: _531  and  _532
REMARK  221  A    between atoms: _532  and  _533
REMARK  222  A    between atoms: _533  and  _534
REMARK  223  A    between atoms: _538  and  _540
REMARK  224  A    between atoms: _540  and  _541
REMARK  225  A    between atoms: _543  and  _545
REMARK  226  A    between atoms: _545  and  _546
REMARK  227  A    between atoms: _545  and  _548
REMARK  228  A    between atoms: _548  and  _549
REMARK  229  A    between atoms: _554  and  _555
REMARK  230  A    between atoms: _557  and  _559
REMARK  231  A    between atoms: _559  and  _560
REMARK  232  A    between atoms: _562  and  _564
REMARK  233  A    between atoms: _564  and  _565
REMARK  234  A    between atoms: _564  and  _567
REMARK  235  A    between atoms: _567  and  _568
REMARK                            x       y       z     vdW  Elec       q    Type
REMARK                         _______ _______ _______ _____ _____    ______ ____
ROOT
ATOM      1  O   HOH     1     -12.355   9.831  23.060  0.00  0.00    +0.000 OA
ENDROOT
TORSDOF 0
REMARK  Name = ../refined-set-2016/3fv1/3fv1_pocket.pdb
REMARK  235 active torsions:
REMARK  status: ('A' for Active; 'I' for Inactive)
REMARK    1  A    between atoms: _1  and  _3
REMARK    2  A    between atoms: _3  and  _4
REMARK    3  A    between atoms: _3  and  _6
REMARK    4  A    between atoms: _6  and  _7
REMARK    5  A    between atoms: _10  and  _12
REMARK    6  A    between atoms: _12  and  _13
REMARK    7  A    between atoms: _12  and  _15
REMARK    8  A    between atoms: _15  and  _16
REMARK    9  A    between atoms: _19  and  _21
REMARK   10  A    between atoms: _21  and  _22
REMARK   11  A    between atoms: _21  and  _24
REMARK   12  A    between atoms: _24  and  _25
REMARK   13  A    between atoms: _25  and  _26
REMARK   14  A    between atoms: _29  and  _31
REMARK   15  A    between atoms: _31  and  _32
REMARK   16  A    between atoms: _31  and  _34
REMARK   17  A    between atoms: _34  and  _35
REMARK   18  A    between atoms: _35  and  _36
REMARK   19  A    between atoms: _40  and  _41
REMARK   20  A    between atoms: _46  and  _48
REMARK   21  A    between atoms: _48  and  _49
REMARK   22  A    between atoms: _48  and  _51
REMARK   23  A    between atoms: _51  and  _52
REMARK   24  A    between atoms: _57  and  _58
REMARK   25  A    between atoms: _60  and  _62
REMARK   26  A    between atoms: _62  and  _63
REMARK   27  A    between atoms: _62  and  _65
REMARK   28  A    between atoms: _67  and  _69
REMARK   29  A    between atoms: _69  and  _70
REMARK   30  A    between atoms: _69  and  _72
REMARK   31  A    between atoms: _72  and  _73
REMARK   32  A    between atoms: _73  and  _74
REMARK   33  A    between atoms: _74  and  _75
REMARK   34  A    between atoms: _75  and  _76
REMARK   35  A    between atoms: _80  and  _82
REMARK   36  A    between atoms: _82  and  _83
REMARK   37  A    between atoms: _82  and  _85
REMARK   38  A    between atoms: _85  and  _86
REMARK   39  A    between atoms: _91  and  _92
REMARK   40  A    between atoms: _94  and  _96
REMARK   41  A    between atoms: _96  and  _97
REMARK   42  A    between atoms: _99  and  _101
REMARK   43  A    between atoms: _101  and  _102
REMARK   44  A    between atoms: _105  and  _107
REMARK   45  A    between atoms: _107  and  _108
REMARK   46  A    between atoms: _107  and  _110
REMARK   47  A    between atoms: _110  and  _111
REMARK   48  A    between atoms: _121  and  _123
REMARK   49  A    between atoms: _123  and  _124
REMARK   50  A    between atoms: _126  and  _128
REMARK   51  A    between atoms: _128  and  _129
REMARK   52  A    between atoms: _128  and  _131
REMARK   53  A    between atoms: _131  and  _132
REMARK   54  A    between atoms: _132  and  _133
REMARK   55  A    between atoms: _135  and  _137
REMARK   56  A    between atoms: _137  and  _138
REMARK   57  A    between atoms: _137  and  _140
REMARK   58  A    between atoms: _143  and  _145
REMARK   59  A    between atoms: _145  and  _146
REMARK   60  A    between atoms: _150  and  _151
REMARK   61  A    between atoms: _156  and  _158
REMARK   62  A    between atoms: _158  and  _159
REMARK   63  A    between atoms: _158  and  _161
REMARK   64  A    between atoms: _161  and  _162
REMARK   65  A    between atoms: _165  and  _167
REMARK   66  A    between atoms: _167  and  _168
REMARK   67  A    between atoms: _167  and  _170
REMARK   68  A    between atoms: _170  and  _171
REMARK   69  A    between atoms: _174  and  _176
REMARK   70  A    between atoms: _176  and  _177
REMARK   71  A    between atoms: _176  and  _179
REMARK   72  A    between atoms: _179  and  _180
REMARK   73  A    between atoms: _183  and  _185
REMARK   74  A    between atoms: _185  and  _186
REMARK   75  A    between atoms: _185  and  _188
REMARK   76  A    between atoms: _188  and  _189
REMARK   77  A    between atoms: _192  and  _194
REMARK   78  A    between atoms: _194  and  _195
REMARK   79  A    between atoms: _194  and  _197
REMARK   80  A    between atoms: _197  and  _198
REMARK   81  A    between atoms: _198  and  _199
REMARK   82  A    between atoms: _199  and  _200
REMARK   83  A    between atoms: _209  and  _211
REMARK   84  A    between atoms: _211  and  _212
REMARK   85  A    between atoms: _211  and  _214
REMARK   86  A    between atoms: _214  and  _215
REMARK   87  A    between atoms: _221  and  _223
REMARK   88  A    between atoms: _223  and  _224
REMARK   89  A    between atoms: _223  and  _226
REMARK   90  A    between atoms: _226  and  _227
REMARK   91  A    between atoms: _230  and  _232
REMARK   92  A    between atoms: _232  and  _233
REMARK   93  A    between atoms: _235  and  _237
REMARK   94  A    between atoms: _237  and  _238
REMARK   95  A    between atoms: _237  and  _240
REMARK   96  A    between atoms: _240  and  _241
REMARK   97  A    between atoms: _244  and  _246
REMARK   98  A    between atoms: _246  and  _247
REMARK   99  A    between atoms: _246  and  _249
REMARK  100  A    between atoms: _249  and  _250
REMARK  101  A    between atoms: _252  and  _254
REMARK  102  A    between atoms: _254  and  _255
REMARK  103  A    between atoms: _254  and  _257
REMARK  104  A    between atoms: _257  and  _258
REMARK  105  A    between atoms: _261  and  _263
REMARK  106  A    between atoms: _263  and  _264
REMARK  107  A    between atoms: _267  and  _269
REMARK  108  A    between atoms: _269  and  _270
REMARK  109  A    between atoms: _269  and  _272
REMARK  110  A    between atoms: _275  and  _277
REMARK  111  A    between atoms: _277  and  _278
REMARK  112  A    between atoms: _277  and  _280
REMARK  113  A    between atoms: _280  and  _281
REMARK  114  A    between atoms: _281  and  _282
REMARK  115  A    between atoms: _282  and  _283
REMARK  116  A    between atoms: _292  and  _294
REMARK  117  A    between atoms: _294  and  _295
REMARK  118  A    between atoms: _294  and  _297
REMARK  119  A    between atoms: _297  and  _298
REMARK  120  A    between atoms: _301  and  _303
REMARK  121  A    between atoms: _303  and  _304
REMARK  122  A    between atoms: _306  and  _308
REMARK  123  A    between atoms: _308  and  _309
REMARK  124  A    between atoms: _308  and  _311
REMARK  125  A    between atoms: _311  and  _312
REMARK  126  A    between atoms: _314  and  _316
REMARK  127  A    between atoms: _316  and  _317
REMARK  128  A    between atoms: _316  and  _319
REMARK  129  A    between atoms: _319  and  _320
REMARK  130  A    between atoms: _323  and  _325
REMARK  131  A    between atoms: _325  and  _326
REMARK  132  A    between atoms: _325  and  _328
REMARK  133  A    between atoms: _328  and  _329
REMARK  134  A    between atoms: _329  and  _330
REMARK  135  A    between atoms: _332  and  _334
REMARK  136  A    between atoms: _334  and  _335
REMARK  137  A    between atoms: _334  and  _337
REMARK  138  A    between atoms: _337  and  _338
REMARK  139  A    between atoms: _341  and  _343
REMARK  140  A    between atoms: _343  and  _344
REMARK  141  A    between atoms: _343  and  _346
REMARK  142  A    between atoms: _346  and  _347
REMARK  143  A    between atoms: _353  and  _355
REMARK  144  A    between atoms: _355  and  _356
REMARK  145  A    between atoms: _355  and  _358
REMARK  146  A    between atoms: _358  and  _359
REMARK  147  A    between atoms: _365  and  _367
REMARK  148  A    between atoms: _367  and  _368
REMARK  149  A    between atoms: _367  and  _370
REMARK  150  A    between atoms: _373  and  _375
REMARK  151  A    between atoms: _375  and  _376
REMARK  152  A    between atoms: _375  and  _378
REMARK  153  A    between atoms: _378  and  _379
REMARK  154  A    between atoms: _379  and  _380
REMARK  155  A    between atoms: _380  and  _381
REMARK  156  A    between atoms: _390  and  _392
REMARK  157  A    between atoms: _392  and  _393
REMARK  158  A    between atoms: _392  and  _395
REMARK  159  A    between atoms: _395  and  _396
REMARK  160  A    between atoms: _401  and  _403
REMARK  161  A    between atoms: _403  and  _404
REMARK  162  A    between atoms: _403  and  _406
REMARK  163  A    between atoms: _406  and  _407
REMARK  164  A    between atoms: _409  and  _411
REMARK  165  A    between atoms: _411  and  _412
REMARK  166  A    between atoms: _411  and  _414
REMARK  167  A    between atoms: _414  and  _415
REMARK  168  A    between atoms: _418  and  _420
REMARK  169  A    between atoms: _420  and  _421
REMARK  170  A    between atoms: _423  and  _425
REMARK  171  A    between atoms: _425  and  _426
REMARK  172  A    between atoms: _425  and  _428
REMARK  173  A    between atoms: _428  and  _429
REMARK  174  A    between atoms: _432  and  _434
REMARK  175  A    between atoms: _434  and  _435
REMARK  176  A    between atoms: _434  and  _437
REMARK  177  A    between atoms: _437  and  _438
REMARK  178  A    between atoms: _441  and  _443
REMARK  179  A    between atoms: _443  and  _444
REMARK  180  A    between atoms: _443  and  _446
REMARK  181  A    between atoms: _446  and  _447
REMARK  182  A    between atoms: _450  and  _452
REMARK  183  A    between atoms: _452  and  _453
REMARK  184  A    between atoms: _452  and  _455
REMARK  185  A    between atoms: _455  and  _456
REMARK  186  A    between atoms: _456  and  _457
REMARK  187  A    between atoms: _459  and  _461
REMARK  188  A    between atoms: _461  and  _462
REMARK  189  A    between atoms: _461  and  _464
REMARK  190  A    between atoms: _464  and  _465
REMARK  191  A    between atoms: _465  and  _466
REMARK  192  A    between atoms: _469  and  _471
REMARK  193  A    between atoms: _471  and  _472
REMARK  194  A    between atoms: _471  and  _474
REMARK  195  A    between atoms: _474  and  _475
REMARK  196  A    between atoms: _477  and  _479
REMARK  197  A    between atoms: _479  and  _480
REMARK  198  A    between atoms: _479  and  _482
REMARK  199  A    between atoms: _482  and  _483
REMARK  200  A    between atoms: _486  and  _488
REMARK  201  A    between atoms: _488  and  _489
REMARK  202  A    between atoms: _488  and  _491
REMARK  203  A    between atoms: _491  and  _492
REMARK  204  A    between atoms: _494  and  _496
REMARK  205  A    between atoms: _496  and  _497
REMARK  206  A    between atoms: _496  and  _499
REMARK  207  A    between atoms: _499  and  _500
REMARK  208  A    between atoms: _503  and  _505
REMARK  209  A    between atoms: _505  and  _506
REMARK  210  A    between atoms: _505  and  _508
REMARK  211  A    between atoms: _508  and  _509
REMARK  212  A    between atoms: _514  and  _515
REMARK  213  A    between atoms: _517  and  _519
REMARK  214  A    between atoms: _519  and  _520
REMARK  215  A    between atoms: _519  and  _522
REMARK  216  A    between atoms: _525  and  _527
REMARK  217  A    between atoms: _527  and  _528
REMARK  218  A    between atoms: _527  and  _530
REMARK  219  A    between atoms: _530  and  _531
REMARK  220  A    between atoms: _531  and  _532
REMARK  221  A    between atoms: _532  and  _533
REMARK  222  A    between atoms: _533  and  _534
REMARK  223  A    between atoms: _538  and  _540
REMARK  224  A    between atoms: _540  and  _541
REMARK  225  A    between atoms: _543  and  _545
REMARK  226  A    between atoms: _545  and  _546
REMARK  227  A    between atoms: _545  and  _548
REMARK  228  A    between atoms: _548  and  _549
REMARK  229  A    between atoms: _554  and  _555
REMARK  230  A    between atoms: _557  and  _559
REMARK  231  A    between atoms: _559  and  _560
REMARK  232  A    between atoms: _562  and  _564
REMARK  233  A    between atoms: _564  and  _565
REMARK  234  A    between atoms: _564  and  _567
REMARK  235  A    between atoms: _567  and  _568
REMARK                            x       y       z     vdW  Elec       q    Type
REMARK                         _______ _______ _______ _____ _____    ______ ____
ROOT
ATOM      1  O   HOH     1      -9.702  11.855  29.078  0.00  0.00    +0.000 OA
ENDROOT
TORSDOF 0
REMARK  Name = ../refined-set-2016/3fv1/3fv1_pocket.pdb
REMARK  235 active torsions:
REMARK  status: ('A' for Active; 'I' for Inactive)
REMARK    1  A    between atoms: _1  and  _3
REMARK    2  A    between atoms: _3  and  _4
REMARK    3  A    between atoms: _3  and  _6
REMARK    4  A    between atoms: _6  and  _7
REMARK    5  A    between atoms: _10  and  _12
REMARK    6  A    between atoms: _12  and  _13
REMARK    7  A    between atoms: _12  and  _15
REMARK    8  A    between atoms: _15  and  _16
REMARK    9  A    between atoms: _19  and  _21
REMARK   10  A    between atoms: _21  and  _22
REMARK   11  A    between atoms: _21  and  _24
REMARK   12  A    between atoms: _24  and  _25
REMARK   13  A    between atoms: _25  and  _26
REMARK   14  A    between atoms: _29  and  _31
REMARK   15  A    between atoms: _31  and  _32
REMARK   16  A    between atoms: _31  and  _34
REMARK   17  A    between atoms: _34  and  _35
REMARK   18  A    between atoms: _35  and  _36
REMARK   19  A    between atoms: _40  and  _41
REMARK   20  A    between atoms: _46  and  _48
REMARK   21  A    between atoms: _48  and  _49
REMARK   22  A    between atoms: _48  and  _51
REMARK   23  A    between atoms: _51  and  _52
REMARK   24  A    between atoms: _57  and  _58
REMARK   25  A    between atoms: _60  and  _62
REMARK   26  A    between atoms: _62  and  _63
REMARK   27  A    between atoms: _62  and  _65
REMARK   28  A    between atoms: _67  and  _69
REMARK   29  A    between atoms: _69  and  _70
REMARK   30  A    between atoms: _69  and  _72
REMARK   31  A    between atoms: _72  and  _73
REMARK   32  A    between atoms: _73  and  _74
REMARK   33  A    between atoms: _74  and  _75
REMARK   34  A    between atoms: _75  and  _76
REMARK   35  A    between atoms: _80  and  _82
REMARK   36  A    between atoms: _82  and  _83
REMARK   37  A    between atoms: _82  and  _85
REMARK   38  A    between atoms: _85  and  _86
REMARK   39  A    between atoms: _91  and  _92
REMARK   40  A    between atoms: _94  and  _96
REMARK   41  A    between atoms: _96  and  _97
REMARK   42  A    between atoms: _99  and  _101
REMARK   43  A    between atoms: _101  and  _102
REMARK   44  A    between atoms: _105  and  _107
REMARK   45  A    between atoms: _107  and  _108
REMARK   46  A    between atoms: _107  and  _110
REMARK   47  A    between atoms: _110  and  _111
REMARK   48  A    between atoms: _121  and  _123
REMARK   49  A    between atoms: _123  and  _124
REMARK   50  A    between atoms: _126  and  _128
REMARK   51  A    between atoms: _128  and  _129
REMARK   52  A    between atoms: _128  and  _131
REMARK   53  A    between atoms: _131  and  _132
REMARK   54  A    between atoms: _132  and  _133
REMARK   55  A    between atoms: _135  and  _137
REMARK   56  A    between atoms: _137  and  _138
REMARK   57  A    between atoms: _137  and  _140
REMARK   58  A    between atoms: _143  and  _145
REMARK   59  A    between atoms: _145  and  _146
REMARK   60  A    between atoms: _150  and  _151
REMARK   61  A    between atoms: _156  and  _158
REMARK   62  A    between atoms: _158  and  _159
REMARK   63  A    between atoms: _158  and  _161
REMARK   64  A    between atoms: _161  and  _162
REMARK   65  A    between atoms: _165  and  _167
REMARK   66  A    between atoms: _167  and  _168
REMARK   67  A    between atoms: _167  and  _170
REMARK   68  A    between atoms: _170  and  _171
REMARK   69  A    between atoms: _174  and  _176
REMARK   70  A    between atoms: _176  and  _177
REMARK   71  A    between atoms: _176  and  _179
REMARK   72  A    between atoms: _179  and  _180
REMARK   73  A    between atoms: _183  and  _185
REMARK   74  A    between atoms: _185  and  _186
REMARK   75  A    between atoms: _185  and  _188
REMARK   76  A    between atoms: _188  and  _189
REMARK   77  A    between atoms: _192  and  _194
REMARK   78  A    between atoms: _194  and  _195
REMARK   79  A    between atoms: _194  and  _197
REMARK   80  A    between atoms: _197  and  _198
REMARK   81  A    between atoms: _198  and  _199
REMARK   82  A    between atoms: _199  and  _200
REMARK   83  A    between atoms: _209  and  _211
REMARK   84  A    between atoms: _211  and  _212
REMARK   85  A    between atoms: _211  and  _214
REMARK   86  A    between atoms: _214  and  _215
REMARK   87  A    between atoms: _221  and  _223
REMARK   88  A    between atoms: _223  and  _224
REMARK   89  A    between atoms: _223  and  _226
REMARK   90  A    between atoms: _226  and  _227
REMARK   91  A    between atoms: _230  and  _232
REMARK   92  A    between atoms: _232  and  _233
REMARK   93  A    between atoms: _235  and  _237
REMARK   94  A    between atoms: _237  and  _238
REMARK   95  A    between atoms: _237  and  _240
REMARK   96  A    between atoms: _240  and  _241
REMARK   97  A    between atoms: _244  and  _246
REMARK   98  A    between atoms: _246  and  _247
REMARK   99  A    between atoms: _246  and  _249
REMARK  100  A    between atoms: _249  and  _250
REMARK  101  A    between atoms: _252  and  _254
REMARK  102  A    between atoms: _254  and  _255
REMARK  103  A    between atoms: _254  and  _257
REMARK  104  A    between atoms: _257  and  _258
REMARK  105  A    between atoms: _261  and  _263
REMARK  106  A    between atoms: _263  and  _264
REMARK  107  A    between atoms: _267  and  _269
REMARK  108  A    between atoms: _269  and  _270
REMARK  109  A    between atoms: _269  and  _272
REMARK  110  A    between atoms: _275  and  _277
REMARK  111  A    between atoms: _277  and  _278
REMARK  112  A    between atoms: _277  and  _280
REMARK  113  A    between atoms: _280  and  _281
REMARK  114  A    between atoms: _281  and  _282
REMARK  115  A    between atoms: _282  and  _283
REMARK  116  A    between atoms: _292  and  _294
REMARK  117  A    between atoms: _294  and  _295
REMARK  118  A    between atoms: _294  and  _297
REMARK  119  A    between atoms: _297  and  _298
REMARK  120  A    between atoms: _301  and  _303
REMARK  121  A    between atoms: _303  and  _304
REMARK  122  A    between atoms: _306  and  _308
REMARK  123  A    between atoms: _308  and  _309
REMARK  124  A    between atoms: _308  and  _311
REMARK  125  A    between atoms: _311  and  _312
REMARK  126  A    between atoms: _314  and  _316
REMARK  127  A    between atoms: _316  and  _317
REMARK  128  A    between atoms: _316  and  _319
REMARK  129  A    between atoms: _319  and  _320
REMARK  130  A    between atoms: _323  and  _325
REMARK  131  A    between atoms: _325  and  _326
REMARK  132  A    between atoms: _325  and  _328
REMARK  133  A    between atoms: _328  and  _329
REMARK  134  A    between atoms: _329  and  _330
REMARK  135  A    between atoms: _332  and  _334
REMARK  136  A    between atoms: _334  and  _335
REMARK  137  A    between atoms: _334  and  _337
REMARK  138  A    between atoms: _337  and  _338
REMARK  139  A    between atoms: _341  and  _343
REMARK  140  A    between atoms: _343  and  _344
REMARK  141  A    between atoms: _343  and  _346
REMARK  142  A    between atoms: _346  and  _347
REMARK  143  A    between atoms: _353  and  _355
REMARK  144  A    between atoms: _355  and  _356
REMARK  145  A    between atoms: _355  and  _358
REMARK  146  A    between atoms: _358  and  _359
REMARK  147  A    between atoms: _365  and  _367
REMARK  148  A    between atoms: _367  and  _368
REMARK  149  A    between atoms: _367  and  _370
REMARK  150  A    between atoms: _373  and  _375
REMARK  151  A    between atoms: _375  and  _376
REMARK  152  A    between atoms: _375  and  _378
REMARK  153  A    between atoms: _378  and  _379
REMARK  154  A    between atoms: _379  and  _380
REMARK  155  A    between atoms: _380  and  _381
REMARK  156  A    between atoms: _390  and  _392
REMARK  157  A    between atoms: _392  and  _393
REMARK  158  A    between atoms: _392  and  _395
REMARK  159  A    between atoms: _395  and  _396
REMARK  160  A    between atoms: _401  and  _403
REMARK  161  A    between atoms: _403  and  _404
REMARK  162  A    between atoms: _403  and  _406
REMARK  163  A    between atoms: _406  and  _407
REMARK  164  A    between atoms: _409  and  _411
REMARK  165  A    between atoms: _411  and  _412
REMARK  166  A    between atoms: _411  and  _414
REMARK  167  A    between atoms: _414  and  _415
REMARK  168  A    between atoms: _418  and  _420
REMARK  169  A    between atoms: _420  and  _421
REMARK  170  A    between atoms: _423  and  _425
REMARK  171  A    between atoms: _425  and  _426
REMARK  172  A    between atoms: _425  and  _428
REMARK  173  A    between atoms: _428  and  _429
REMARK  174  A    between atoms: _432  and  _434
REMARK  175  A    between atoms: _434  and  _435
REMARK  176  A    between atoms: _434  and  _437
REMARK  177  A    between atoms: _437  and  _438
REMARK  178  A    between atoms: _441  and  _443
REMARK  179  A    between atoms: _443  and  _444
REMARK  180  A    between atoms: _443  and  _446
REMARK  181  A    between atoms: _446  and  _447
REMARK  182  A    between atoms: _450  and  _452
REMARK  183  A    between atoms: _452  and  _453
REMARK  184  A    between atoms: _452  and  _455
REMARK  185  A    between atoms: _455  and  _456
REMARK  186  A    between atoms: _456  and  _457
REMARK  187  A    between atoms: _459  and  _461
REMARK  188  A    between atoms: _461  and  _462
REMARK  189  A    between atoms: _461  and  _464
REMARK  190  A    between atoms: _464  and  _465
REMARK  191  A    between atoms: _465  and  _466
REMARK  192  A    between atoms: _469  and  _471
REMARK  193  A    between atoms: _471  and  _472
REMARK  194  A    between atoms: _471  and  _474
REMARK  195  A    between atoms: _474  and  _475
REMARK  196  A    between atoms: _477  and  _479
REMARK  197  A    between atoms: _479  and  _480
REMARK  198  A    between atoms: _479  and  _482
REMARK  199  A    between atoms: _482  and  _483
REMARK  200  A    between atoms: _486  and  _488
REMARK  201  A    between atoms: _488  and  _489
REMARK  202  A    between atoms: _488  and  _491
REMARK  203  A    between atoms: _491  and  _492
REMARK  204  A    between atoms: _494  and  _496
REMARK  205  A    between atoms: _496  and  _497
REMARK  206  A    between atoms: _496  and  _499
REMARK  207  A    between atoms: _499  and  _500
REMARK  208  A    between atoms: _503  and  _505
REMARK  209  A    between atoms: _505  and  _506
REMARK  210  A    between atoms: _505  and  _508
REMARK  211  A    between atoms: _508  and  _509
REMARK  212  A    between atoms: _514  and  _515
REMARK  213  A    between atoms: _517  and  _519
REMARK  214  A    between atoms: _519  and  _520
REMARK  215  A    between atoms: _519  and  _522
REMARK  216  A    between atoms: _525  and  _527
REMARK  217  A    between atoms: _527  and  _528
REMARK  218  A    between atoms: _527  and  _530
REMARK  219  A    between atoms: _530  and  _531
REMARK  220  A    between atoms: _531  and  _532
REMARK  221  A    between atoms: _532  and  _533
REMARK  222  A    between atoms: _533  and  _534
REMARK  223  A    between atoms: _538  and  _540
REMARK  224  A    between atoms: _540  and  _541
REMARK  225  A    between atoms: _543  and  _545
REMARK  226  A    between atoms: _545  and  _546
REMARK  227  A    between atoms: _545  and  _548
REMARK  228  A    between atoms: _548  and  _549
REMARK  229  A    between atoms: _554  and  _555
REMARK  230  A    between atoms: _557  and  _559
REMARK  231  A    between atoms: _559  and  _560
REMARK  232  A    between atoms: _562  and  _564
REMARK  233  A    between atoms: _564  and  _565
REMARK  234  A    between atoms: _564  and  _567
REMARK  235  A    between atoms: _567  and  _568
REMARK                            x       y       z     vdW  Elec       q    Type
REMARK                         _______ _______ _______ _____ _____    ______ ____
ROOT
ATOM      1  O   HOH     1      -3.914  19.352  27.599  0.00  0.00    +0.000 OA
ENDROOT
TORSDOF 0
REMARK  Name = ../refined-set-2016/3fv1/3fv1_pocket.pdb
REMARK  235 active torsions:
REMARK  status: ('A' for Active; 'I' for Inactive)
REMARK    1  A    between atoms: _1  and  _3
REMARK    2  A    between atoms: _3  and  _4
REMARK    3  A    between atoms: _3  and  _6
REMARK    4  A    between atoms: _6  and  _7
REMARK    5  A    between atoms: _10  and  _12
REMARK    6  A    between atoms: _12  and  _13
REMARK    7  A    between atoms: _12  and  _15
REMARK    8  A    between atoms: _15  and  _16
REMARK    9  A    between atoms: _19  and  _21
REMARK   10  A    between atoms: _21  and  _22
REMARK   11  A    between atoms: _21  and  _24
REMARK   12  A    between atoms: _24  and  _25
REMARK   13  A    between atoms: _25  and  _26
REMARK   14  A    between atoms: _29  and  _31
REMARK   15  A    between atoms: _31  and  _32
REMARK   16  A    between atoms: _31  and  _34
REMARK   17  A    between atoms: _34  and  _35
REMARK   18  A    between atoms: _35  and  _36
REMARK   19  A    between atoms: _40  and  _41
REMARK   20  A    between atoms: _46  and  _48
REMARK   21  A    between atoms: _48  and  _49
REMARK   22  A    between atoms: _48  and  _51
REMARK   23  A    between atoms: _51  and  _52
REMARK   24  A    between atoms: _57  and  _58
REMARK   25  A    between atoms: _60  and  _62
REMARK   26  A    between atoms: _62  and  _63
REMARK   27  A    between atoms: _62  and  _65
REMARK   28  A    between atoms: _67  and  _69
REMARK   29  A    between atoms: _69  and  _70
REMARK   30  A    between atoms: _69  and  _72
REMARK   31  A    between atoms: _72  and  _73
REMARK   32  A    between atoms: _73  and  _74
REMARK   33  A    between atoms: _74  and  _75
REMARK   34  A    between atoms: _75  and  _76
REMARK   35  A    between atoms: _80  and  _82
REMARK   36  A    between atoms: _82  and  _83
REMARK   37  A    between atoms: _82  and  _85
REMARK   38  A    between atoms: _85  and  _86
REMARK   39  A    between atoms: _91  and  _92
REMARK   40  A    between atoms: _94  and  _96
REMARK   41  A    between atoms: _96  and  _97
REMARK   42  A    between atoms: _99  and  _101
REMARK   43  A    between atoms: _101  and  _102
REMARK   44  A    between atoms: _105  and  _107
REMARK   45  A    between atoms: _107  and  _108
REMARK   46  A    between atoms: _107  and  _110
REMARK   47  A    between atoms: _110  and  _111
REMARK   48  A    between atoms: _121  and  _123
REMARK   49  A    between atoms: _123  and  _124
REMARK   50  A    between atoms: _126  and  _128
REMARK   51  A    between atoms: _128  and  _129
REMARK   52  A    between atoms: _128  and  _131
REMARK   53  A    between atoms: _131  and  _132
REMARK   54  A    between atoms: _132  and  _133
REMARK   55  A    between atoms: _135  and  _137
REMARK   56  A    between atoms: _137  and  _138
REMARK   57  A    between atoms: _137  and  _140
REMARK   58  A    between atoms: _143  and  _145
REMARK   59  A    between atoms: _145  and  _146
REMARK   60  A    between atoms: _150  and  _151
REMARK   61  A    between atoms: _156  and  _158
REMARK   62  A    between atoms: _158  and  _159
REMARK   63  A    between atoms: _158  and  _161
REMARK   64  A    between atoms: _161  and  _162
REMARK   65  A    between atoms: _165  and  _167
REMARK   66  A    between atoms: _167  and  _168
REMARK   67  A    between atoms: _167  and  _170
REMARK   68  A    between atoms: _170  and  _171
REMARK   69  A    between atoms: _174  and  _176
REMARK   70  A    between atoms: _176  and  _177
REMARK   71  A    between atoms: _176  and  _179
REMARK   72  A    between atoms: _179  and  _180
REMARK   73  A    between atoms: _183  and  _185
REMARK   74  A    between atoms: _185  and  _186
REMARK   75  A    between atoms: _185  and  _188
REMARK   76  A    between atoms: _188  and  _189
REMARK   77  A    between atoms: _192  and  _194
REMARK   78  A    between atoms: _194  and  _195
REMARK   79  A    between atoms: _194  and  _197
REMARK   80  A    between atoms: _197  and  _198
REMARK   81  A    between atoms: _198  and  _199
REMARK   82  A    between atoms: _199  and  _200
REMARK   83  A    between atoms: _209  and  _211
REMARK   84  A    between atoms: _211  and  _212
REMARK   85  A    between atoms: _211  and  _214
REMARK   86  A    between atoms: _214  and  _215
REMARK   87  A    between atoms: _221  and  _223
REMARK   88  A    between atoms: _223  and  _224
REMARK   89  A    between atoms: _223  and  _226
REMARK   90  A    between atoms: _226  and  _227
REMARK   91  A    between atoms: _230  and  _232
REMARK   92  A    between atoms: _232  and  _233
REMARK   93  A    between atoms: _235  and  _237
REMARK   94  A    between atoms: _237  and  _238
REMARK   95  A    between atoms: _237  and  _240
REMARK   96  A    between atoms: _240  and  _241
REMARK   97  A    between atoms: _244  and  _246
REMARK   98  A    between atoms: _246  and  _247
REMARK   99  A    between atoms: _246  and  _249
REMARK  100  A    between atoms: _249  and  _250
REMARK  101  A    between atoms: _252  and  _254
REMARK  102  A    between atoms: _254  and  _255
REMARK  103  A    between atoms: _254  and  _257
REMARK  104  A    between atoms: _257  and  _258
REMARK  105  A    between atoms: _261  and  _263
REMARK  106  A    between atoms: _263  and  _264
REMARK  107  A    between atoms: _267  and  _269
REMARK  108  A    between atoms: _269  and  _270
REMARK  109  A    between atoms: _269  and  _272
REMARK  110  A    between atoms: _275  and  _277
REMARK  111  A    between atoms: _277  and  _278
REMARK  112  A    between atoms: _277  and  _280
REMARK  113  A    between atoms: _280  and  _281
REMARK  114  A    between atoms: _281  and  _282
REMARK  115  A    between atoms: _282  and  _283
REMARK  116  A    between atoms: _292  and  _294
REMARK  117  A    between atoms: _294  and  _295
REMARK  118  A    between atoms: _294  and  _297
REMARK  119  A    between atoms: _297  and  _298
REMARK  120  A    between atoms: _301  and  _303
REMARK  121  A    between atoms: _303  and  _304
REMARK  122  A    between atoms: _306  and  _308
REMARK  123  A    between atoms: _308  and  _309
REMARK  124  A    between atoms: _308  and  _311
REMARK  125  A    between atoms: _311  and  _312
REMARK  126  A    between atoms: _314  and  _316
REMARK  127  A    between atoms: _316  and  _317
REMARK  128  A    between atoms: _316  and  _319
REMARK  129  A    between atoms: _319  and  _320
REMARK  130  A    between atoms: _323  and  _325
REMARK  131  A    between atoms: _325  and  _326
REMARK  132  A    between atoms: _325  and  _328
REMARK  133  A    between atoms: _328  and  _329
REMARK  134  A    between atoms: _329  and  _330
REMARK  135  A    between atoms: _332  and  _334
REMARK  136  A    between atoms: _334  and  _335
REMARK  137  A    between atoms: _334  and  _337
REMARK  138  A    between atoms: _337  and  _338
REMARK  139  A    between atoms: _341  and  _343
REMARK  140  A    between atoms: _343  and  _344
REMARK  141  A    between atoms: _343  and  _346
REMARK  142  A    between atoms: _346  and  _347
REMARK  143  A    between atoms: _353  and  _355
REMARK  144  A    between atoms: _355  and  _356
REMARK  145  A    between atoms: _355  and  _358
REMARK  146  A    between atoms: _358  and  _359
REMARK  147  A    between atoms: _365  and  _367
REMARK  148  A    between atoms: _367  and  _368
REMARK  149  A    between atoms: _367  and  _370
REMARK  150  A    between atoms: _373  and  _375
REMARK  151  A    between atoms: _375  and  _376
REMARK  152  A    between atoms: _375  and  _378
REMARK  153  A    between atoms: _378  and  _379
REMARK  154  A    between atoms: _379  and  _380
REMARK  155  A    between atoms: _380  and  _381
REMARK  156  A    between atoms: _390  and  _392
REMARK  157  A    between atoms: _392  and  _393
REMARK  158  A    between atoms: _392  and  _395
REMARK  159  A    between atoms: _395  and  _396
REMARK  160  A    between atoms: _401  and  _403
REMARK  161  A    between atoms: _403  and  _404
REMARK  162  A    between atoms: _403  and  _406
REMARK  163  A    between atoms: _406  and  _407
REMARK  164  A    between atoms: _409  and  _411
REMARK  165  A    between atoms: _411  and  _412
REMARK  166  A    between atoms: _411  and  _414
REMARK  167  A    between atoms: _414  and  _415
REMARK  168  A    between atoms: _418  and  _420
REMARK  169  A    between atoms: _420  and  _421
REMARK  170  A    between atoms: _423  and  _425
REMARK  171  A    between atoms: _425  and  _426
REMARK  172  A    between atoms: _425  and  _428
REMARK  173  A    between atoms: _428  and  _429
REMARK  174  A    between atoms: _432  and  _434
REMARK  175  A    between atoms: _434  and  _435
REMARK  176  A    between atoms: _434  and  _437
REMARK  177  A    between atoms: _437  and  _438
REMARK  178  A    between atoms: _441  and  _443
REMARK  179  A    between atoms: _443  and  _444
REMARK  180  A    between atoms: _443  and  _446
REMARK  181  A    between atoms: _446  and  _447
REMARK  182  A    between atoms: _450  and  _452
REMARK  183  A    between atoms: _452  and  _453
REMARK  184  A    between atoms: _452  and  _455
REMARK  185  A    between atoms: _455  and  _456
REMARK  186  A    between atoms: _456  and  _457
REMARK  187  A    between atoms: _459  and  _461
REMARK  188  A    between atoms: _461  and  _462
REMARK  189  A    between atoms: _461  and  _464
REMARK  190  A    between atoms: _464  and  _465
REMARK  191  A    between atoms: _465  and  _466
REMARK  192  A    between atoms: _469  and  _471
REMARK  193  A    between atoms: _471  and  _472
REMARK  194  A    between atoms: _471  and  _474
REMARK  195  A    between atoms: _474  and  _475
REMARK  196  A    between atoms: _477  and  _479
REMARK  197  A    between atoms: _479  and  _480
REMARK  198  A    between atoms: _479  and  _482
REMARK  199  A    between atoms: _482  and  _483
REMARK  200  A    between atoms: _486  and  _488
REMARK  201  A    between atoms: _488  and  _489
REMARK  202  A    between atoms: _488  and  _491
REMARK  203  A    between atoms: _491  and  _492
REMARK  204  A    between atoms: _494  and  _496
REMARK  205  A    between atoms: _496  and  _497
REMARK  206  A    between atoms: _496  and  _499
REMARK  207  A    between atoms: _499  and  _500
REMARK  208  A    between atoms: _503  and  _505
REMARK  209  A    between atoms: _505  and  _506
REMARK  210  A    between atoms: _505  and  _508
REMARK  211  A    between atoms: _508  and  _509
REMARK  212  A    between atoms: _514  and  _515
REMARK  213  A    between atoms: _517  and  _519
REMARK  214  A    between atoms: _519  and  _520
REMARK  215  A    between atoms: _519  and  _522
REMARK  216  A    between atoms: _525  and  _527
REMARK  217  A    between atoms: _527  and  _528
REMARK  218  A    between atoms: _527  and  _530
REMARK  219  A    between atoms: _530  and  _531
REMARK  220  A    between atoms: _531  and  _532
REMARK  221  A    between atoms: _532  and  _533
REMARK  222  A    between atoms: _533  and  _534
REMARK  223  A    between atoms: _538  and  _540
REMARK  224  A    between atoms: _540  and  _541
REMARK  225  A    between atoms: _543  and  _545
REMARK  226  A    between atoms: _545  and  _546
REMARK  227  A    between atoms: _545  and  _548
REMARK  228  A    between atoms: _548  and  _549
REMARK  229  A    between atoms: _554  and  _555
REMARK  230  A    between atoms: _557  and  _559
REMARK  231  A    between atoms: _559  and  _560
REMARK  232  A    between atoms: _562  and  _564
REMARK  233  A    between atoms: _564  and  _565
REMARK  234  A    between atoms: _564  and  _567
REMARK  235  A    between atoms: _567  and  _568
REMARK                            x       y       z     vdW  Elec       q    Type
REMARK                         _______ _______ _______ _____ _____    ______ ____
ROOT
ATOM      1  O   HOH     1      -6.111  20.035  12.601  0.00  0.00    +0.000 OA
ENDROOT
TORSDOF 0
REMARK  Name = ../refined-set-2016/3fv1/3fv1_pocket.pdb
REMARK  235 active torsions:
REMARK  status: ('A' for Active; 'I' for Inactive)
REMARK    1  A    between atoms: _1  and  _3
REMARK    2  A    between atoms: _3  and  _4
REMARK    3  A    between atoms: _3  and  _6
REMARK    4  A    between atoms: _6  and  _7
REMARK    5  A    between atoms: _10  and  _12
REMARK    6  A    between atoms: _12  and  _13
REMARK    7  A    between atoms: _12  and  _15
REMARK    8  A    between atoms: _15  and  _16
REMARK    9  A    between atoms: _19  and  _21
REMARK   10  A    between atoms: _21  and  _22
REMARK   11  A    between atoms: _21  and  _24
REMARK   12  A    between atoms: _24  and  _25
REMARK   13  A    between atoms: _25  and  _26
REMARK   14  A    between atoms: _29  and  _31
REMARK   15  A    between atoms: _31  and  _32
REMARK   16  A    between atoms: _31  and  _34
REMARK   17  A    between atoms: _34  and  _35
REMARK   18  A    between atoms: _35  and  _36
REMARK   19  A    between atoms: _40  and  _41
REMARK   20  A    between atoms: _46  and  _48
REMARK   21  A    between atoms: _48  and  _49
REMARK   22  A    between atoms: _48  and  _51
REMARK   23  A    between atoms: _51  and  _52
REMARK   24  A    between atoms: _57  and  _58
REMARK   25  A    between atoms: _60  and  _62
REMARK   26  A    between atoms: _62  and  _63
REMARK   27  A    between atoms: _62  and  _65
REMARK   28  A    between atoms: _67  and  _69
REMARK   29  A    between atoms: _69  and  _70
REMARK   30  A    between atoms: _69  and  _72
REMARK   31  A    between atoms: _72  and  _73
REMARK   32  A    between atoms: _73  and  _74
REMARK   33  A    between atoms: _74  and  _75
REMARK   34  A    between atoms: _75  and  _76
REMARK   35  A    between atoms: _80  and  _82
REMARK   36  A    between atoms: _82  and  _83
REMARK   37  A    between atoms: _82  and  _85
REMARK   38  A    between atoms: _85  and  _86
REMARK   39  A    between atoms: _91  and  _92
REMARK   40  A    between atoms: _94  and  _96
REMARK   41  A    between atoms: _96  and  _97
REMARK   42  A    between atoms: _99  and  _101
REMARK   43  A    between atoms: _101  and  _102
REMARK   44  A    between atoms: _105  and  _107
REMARK   45  A    between atoms: _107  and  _108
REMARK   46  A    between atoms: _107  and  _110
REMARK   47  A    between atoms: _110  and  _111
REMARK   48  A    between atoms: _121  and  _123
REMARK   49  A    between atoms: _123  and  _124
REMARK   50  A    between atoms: _126  and  _128
REMARK   51  A    between atoms: _128  and  _129
REMARK   52  A    between atoms: _128  and  _131
REMARK   53  A    between atoms: _131  and  _132
REMARK   54  A    between atoms: _132  and  _133
REMARK   55  A    between atoms: _135  and  _137
REMARK   56  A    between atoms: _137  and  _138
REMARK   57  A    between atoms: _137  and  _140
REMARK   58  A    between atoms: _143  and  _145
REMARK   59  A    between atoms: _145  and  _146
REMARK   60  A    between atoms: _150  and  _151
REMARK   61  A    between atoms: _156  and  _158
REMARK   62  A    between atoms: _158  and  _159
REMARK   63  A    between atoms: _158  and  _161
REMARK   64  A    between atoms: _161  and  _162
REMARK   65  A    between atoms: _165  and  _167
REMARK   66  A    between atoms: _167  and  _168
REMARK   67  A    between atoms: _167  and  _170
REMARK   68  A    between atoms: _170  and  _171
REMARK   69  A    between atoms: _174  and  _176
REMARK   70  A    between atoms: _176  and  _177
REMARK   71  A    between atoms: _176  and  _179
REMARK   72  A    between atoms: _179  and  _180
REMARK   73  A    between atoms: _183  and  _185
REMARK   74  A    between atoms: _185  and  _186
REMARK   75  A    between atoms: _185  and  _188
REMARK   76  A    between atoms: _188  and  _189
REMARK   77  A    between atoms: _192  and  _194
REMARK   78  A    between atoms: _194  and  _195
REMARK   79  A    between atoms: _194  and  _197
REMARK   80  A    between atoms: _197  and  _198
REMARK   81  A    between atoms: _198  and  _199
REMARK   82  A    between atoms: _199  and  _200
REMARK   83  A    between atoms: _209  and  _211
REMARK   84  A    between atoms: _211  and  _212
REMARK   85  A    between atoms: _211  and  _214
REMARK   86  A    between atoms: _214  and  _215
REMARK   87  A    between atoms: _221  and  _223
REMARK   88  A    between atoms: _223  and  _224
REMARK   89  A    between atoms: _223  and  _226
REMARK   90  A    between atoms: _226  and  _227
REMARK   91  A    between atoms: _230  and  _232
REMARK   92  A    between atoms: _232  and  _233
REMARK   93  A    between atoms: _235  and  _237
REMARK   94  A    between atoms: _237  and  _238
REMARK   95  A    between atoms: _237  and  _240
REMARK   96  A    between atoms: _240  and  _241
REMARK   97  A    between atoms: _244  and  _246
REMARK   98  A    between atoms: _246  and  _247
REMARK   99  A    between atoms: _246  and  _249
REMARK  100  A    between atoms: _249  and  _250
REMARK  101  A    between atoms: _252  and  _254
REMARK  102  A    between atoms: _254  and  _255
REMARK  103  A    between atoms: _254  and  _257
REMARK  104  A    between atoms: _257  and  _258
REMARK  105  A    between atoms: _261  and  _263
REMARK  106  A    between atoms: _263  and  _264
REMARK  107  A    between atoms: _267  and  _269
REMARK  108  A    between atoms: _269  and  _270
REMARK  109  A    between atoms: _269  and  _272
REMARK  110  A    between atoms: _275  and  _277
REMARK  111  A    between atoms: _277  and  _278
REMARK  112  A    between atoms: _277  and  _280
REMARK  113  A    between atoms: _280  and  _281
REMARK  114  A    between atoms: _281  and  _282
REMARK  115  A    between atoms: _282  and  _283
REMARK  116  A    between atoms: _292  and  _294
REMARK  117  A    between atoms: _294  and  _295
REMARK  118  A    between atoms: _294  and  _297
REMARK  119  A    between atoms: _297  and  _298
REMARK  120  A    between atoms: _301  and  _303
REMARK  121  A    between atoms: _303  and  _304
REMARK  122  A    between atoms: _306  and  _308
REMARK  123  A    between atoms: _308  and  _309
REMARK  124  A    between atoms: _308  and  _311
REMARK  125  A    between atoms: _311  and  _312
REMARK  126  A    between atoms: _314  and  _316
REMARK  127  A    between atoms: _316  and  _317
REMARK  128  A    between atoms: _316  and  _319
REMARK  129  A    between atoms: _319  and  _320
REMARK  130  A    between atoms: _323  and  _325
REMARK  131  A    between atoms: _325  and  _326
REMARK  132  A    between atoms: _325  and  _328
REMARK  133  A    between atoms: _328  and  _329
REMARK  134  A    between atoms: _329  and  _330
REMARK  135  A    between atoms: _332  and  _334
REMARK  136  A    between atoms: _334  and  _335
REMARK  137  A    between atoms: _334  and  _337
REMARK  138  A    between atoms: _337  and  _338
REMARK  139  A    between atoms: _341  and  _343
REMARK  140  A    between atoms: _343  and  _344
REMARK  141  A    between atoms: _343  and  _346
REMARK  142  A    between atoms: _346  and  _347
REMARK  143  A    between atoms: _353  and  _355
REMARK  144  A    between atoms: _355  and  _356
REMARK  145  A    between atoms: _355  and  _358
REMARK  146  A    between atoms: _358  and  _359
REMARK  147  A    between atoms: _365  and  _367
REMARK  148  A    between atoms: _367  and  _368
REMARK  149  A    between atoms: _367  and  _370
REMARK  150  A    between atoms: _373  and  _375
REMARK  151  A    between atoms: _375  and  _376
REMARK  152  A    between atoms: _375  and  _378
REMARK  153  A    between atoms: _378  and  _379
REMARK  154  A    between atoms: _379  and  _380
REMARK  155  A    between atoms: _380  and  _381
REMARK  156  A    between atoms: _390  and  _392
REMARK  157  A    between atoms: _392  and  _393
REMARK  158  A    between atoms: _392  and  _395
REMARK  159  A    between atoms: _395  and  _396
REMARK  160  A    between atoms: _401  and  _403
REMARK  161  A    between atoms: _403  and  _404
REMARK  162  A    between atoms: _403  and  _406
REMARK  163  A    between atoms: _406  and  _407
REMARK  164  A    between atoms: _409  and  _411
REMARK  165  A    between atoms: _411  and  _412
REMARK  166  A    between atoms: _411  and  _414
REMARK  167  A    between atoms: _414  and  _415
REMARK  168  A    between atoms: _418  and  _420
REMARK  169  A    between atoms: _420  and  _421
REMARK  170  A    between atoms: _423  and  _425
REMARK  171  A    between atoms: _425  and  _426
REMARK  172  A    between atoms: _425  and  _428
REMARK  173  A    between atoms: _428  and  _429
REMARK  174  A    between atoms: _432  and  _434
REMARK  175  A    between atoms: _434  and  _435
REMARK  176  A    between atoms: _434  and  _437
REMARK  177  A    between atoms: _437  and  _438
REMARK  178  A    between atoms: _441  and  _443
REMARK  179  A    between atoms: _443  and  _444
REMARK  180  A    between atoms: _443  and  _446
REMARK  181  A    between atoms: _446  and  _447
REMARK  182  A    between atoms: _450  and  _452
REMARK  183  A    between atoms: _452  and  _453
REMARK  184  A    between atoms: _452  and  _455
REMARK  185  A    between atoms: _455  and  _456
REMARK  186  A    between atoms: _456  and  _457
REMARK  187  A    between atoms: _459  and  _461
REMARK  188  A    between atoms: _461  and  _462
REMARK  189  A    between atoms: _461  and  _464
REMARK  190  A    between atoms: _464  and  _465
REMARK  191  A    between atoms: _465  and  _466
REMARK  192  A    between atoms: _469  and  _471
REMARK  193  A    between atoms: _471  and  _472
REMARK  194  A    between atoms: _471  and  _474
REMARK  195  A    between atoms: _474  and  _475
REMARK  196  A    between atoms: _477  and  _479
REMARK  197  A    between atoms: _479  and  _480
REMARK  198  A    between atoms: _479  and  _482
REMARK  199  A    between atoms: _482  and  _483
REMARK  200  A    between atoms: _486  and  _488
REMARK  201  A    between atoms: _488  and  _489
REMARK  202  A    between atoms: _488  and  _491
REMARK  203  A    between atoms: _491  and  _492
REMARK  204  A    between atoms: _494  and  _496
REMARK  205  A    between atoms: _496  and  _497
REMARK  206  A    between atoms: _496  and  _499
REMARK  207  A    between atoms: _499  and  _500
REMARK  208  A    between atoms: _503  and  _505
REMARK  209  A    between atoms: _505  and  _506
REMARK  210  A    between atoms: _505  and  _508
REMARK  211  A    between atoms: _508  and  _509
REMARK  212  A    between atoms: _514  and  _515
REMARK  213  A    between atoms: _517  and  _519
REMARK  214  A    between atoms: _519  and  _520
REMARK  215  A    between atoms: _519  and  _522
REMARK  216  A    between atoms: _525  and  _527
REMARK  217  A    between atoms: _527  and  _528
REMARK  218  A    between atoms: _527  and  _530
REMARK  219  A    between atoms: _530  and  _531
REMARK  220  A    between atoms: _531  and  _532
REMARK  221  A    between atoms: _532  and  _533
REMARK  222  A    between atoms: _533  and  _534
REMARK  223  A    between atoms: _538  and  _540
REMARK  224  A    between atoms: _540  and  _541
REMARK  225  A    between atoms: _543  and  _545
REMARK  226  A    between atoms: _545  and  _546
REMARK  227  A    between atoms: _545  and  _548
REMARK  228  A    between atoms: _548  and  _549
REMARK  229  A    between atoms: _554  and  _555
REMARK  230  A    between atoms: _557  and  _559
REMARK  231  A    between atoms: _559  and  _560
REMARK  232  A    between atoms: _562  and  _564
REMARK  233  A    between atoms: _564  and  _565
REMARK  234  A    between atoms: _564  and  _567
REMARK  235  A    between atoms: _567  and  _568
REMARK                            x       y       z     vdW  Elec       q    Type
REMARK                         _______ _______ _______ _____ _____    ______ ____
ROOT
ATOM      1  O   HOH     1      -8.493  17.895  15.390  0.00  0.00    +0.000 OA
ENDROOT
TORSDOF 0
REMARK  Name = ../refined-set-2016/3fv1/3fv1_pocket.pdb
REMARK  235 active torsions:
REMARK  status: ('A' for Active; 'I' for Inactive)
REMARK    1  A    between atoms: _1  and  _3
REMARK    2  A    between atoms: _3  and  _4
REMARK    3  A    between atoms: _3  and  _6
REMARK    4  A    between atoms: _6  and  _7
REMARK    5  A    between atoms: _10  and  _12
REMARK    6  A    between atoms: _12  and  _13
REMARK    7  A    between atoms: _12  and  _15
REMARK    8  A    between atoms: _15  and  _16
REMARK    9  A    between atoms: _19  and  _21
REMARK   10  A    between atoms: _21  and  _22
REMARK   11  A    between atoms: _21  and  _24
REMARK   12  A    between atoms: _24  and  _25
REMARK   13  A    between atoms: _25  and  _26
REMARK   14  A    between atoms: _29  and  _31
REMARK   15  A    between atoms: _31  and  _32
REMARK   16  A    between atoms: _31  and  _34
REMARK   17  A    between atoms: _34  and  _35
REMARK   18  A    between atoms: _35  and  _36
REMARK   19  A    between atoms: _40  and  _41
REMARK   20  A    between atoms: _46  and  _48
REMARK   21  A    between atoms: _48  and  _49
REMARK   22  A    between atoms: _48  and  _51
REMARK   23  A    between atoms: _51  and  _52
REMARK   24  A    between atoms: _57  and  _58
REMARK   25  A    between atoms: _60  and  _62
REMARK   26  A    between atoms: _62  and  _63
REMARK   27  A    between atoms: _62  and  _65
REMARK   28  A    between atoms: _67  and  _69
REMARK   29  A    between atoms: _69  and  _70
REMARK   30  A    between atoms: _69  and  _72
REMARK   31  A    between atoms: _72  and  _73
REMARK   32  A    between atoms: _73  and  _74
REMARK   33  A    between atoms: _74  and  _75
REMARK   34  A    between atoms: _75  and  _76
REMARK   35  A    between atoms: _80  and  _82
REMARK   36  A    between atoms: _82  and  _83
REMARK   37  A    between atoms: _82  and  _85
REMARK   38  A    between atoms: _85  and  _86
REMARK   39  A    between atoms: _91  and  _92
REMARK   40  A    between atoms: _94  and  _96
REMARK   41  A    between atoms: _96  and  _97
REMARK   42  A    between atoms: _99  and  _101
REMARK   43  A    between atoms: _101  and  _102
REMARK   44  A    between atoms: _105  and  _107
REMARK   45  A    between atoms: _107  and  _108
REMARK   46  A    between atoms: _107  and  _110
REMARK   47  A    between atoms: _110  and  _111
REMARK   48  A    between atoms: _121  and  _123
REMARK   49  A    between atoms: _123  and  _124
REMARK   50  A    between atoms: _126  and  _128
REMARK   51  A    between atoms: _128  and  _129
REMARK   52  A    between atoms: _128  and  _131
REMARK   53  A    between atoms: _131  and  _132
REMARK   54  A    between atoms: _132  and  _133
REMARK   55  A    between atoms: _135  and  _137
REMARK   56  A    between atoms: _137  and  _138
REMARK   57  A    between atoms: _137  and  _140
REMARK   58  A    between atoms: _143  and  _145
REMARK   59  A    between atoms: _145  and  _146
REMARK   60  A    between atoms: _150  and  _151
REMARK   61  A    between atoms: _156  and  _158
REMARK   62  A    between atoms: _158  and  _159
REMARK   63  A    between atoms: _158  and  _161
REMARK   64  A    between atoms: _161  and  _162
REMARK   65  A    between atoms: _165  and  _167
REMARK   66  A    between atoms: _167  and  _168
REMARK   67  A    between atoms: _167  and  _170
REMARK   68  A    between atoms: _170  and  _171
REMARK   69  A    between atoms: _174  and  _176
REMARK   70  A    between atoms: _176  and  _177
REMARK   71  A    between atoms: _176  and  _179
REMARK   72  A    between atoms: _179  and  _180
REMARK   73  A    between atoms: _183  and  _185
REMARK   74  A    between atoms: _185  and  _186
REMARK   75  A    between atoms: _185  and  _188
REMARK   76  A    between atoms: _188  and  _189
REMARK   77  A    between atoms: _192  and  _194
REMARK   78  A    between atoms: _194  and  _195
REMARK   79  A    between atoms: _194  and  _197
REMARK   80  A    between atoms: _197  and  _198
REMARK   81  A    between atoms: _198  and  _199
REMARK   82  A    between atoms: _199  and  _200
REMARK   83  A    between atoms: _209  and  _211
REMARK   84  A    between atoms: _211  and  _212
REMARK   85  A    between atoms: _211  and  _214
REMARK   86  A    between atoms: _214  and  _215
REMARK   87  A    between atoms: _221  and  _223
REMARK   88  A    between atoms: _223  and  _224
REMARK   89  A    between atoms: _223  and  _226
REMARK   90  A    between atoms: _226  and  _227
REMARK   91  A    between atoms: _230  and  _232
REMARK   92  A    between atoms: _232  and  _233
REMARK   93  A    between atoms: _235  and  _237
REMARK   94  A    between atoms: _237  and  _238
REMARK   95  A    between atoms: _237  and  _240
REMARK   96  A    between atoms: _240  and  _241
REMARK   97  A    between atoms: _244  and  _246
REMARK   98  A    between atoms: _246  and  _247
REMARK   99  A    between atoms: _246  and  _249
REMARK  100  A    between atoms: _249  and  _250
REMARK  101  A    between atoms: _252  and  _254
REMARK  102  A    between atoms: _254  and  _255
REMARK  103  A    between atoms: _254  and  _257
REMARK  104  A    between atoms: _257  and  _258
REMARK  105  A    between atoms: _261  and  _263
REMARK  106  A    between atoms: _263  and  _264
REMARK  107  A    between atoms: _267  and  _269
REMARK  108  A    between atoms: _269  and  _270
REMARK  109  A    between atoms: _269  and  _272
REMARK  110  A    between atoms: _275  and  _277
REMARK  111  A    between atoms: _277  and  _278
REMARK  112  A    between atoms: _277  and  _280
REMARK  113  A    between atoms: _280  and  _281
REMARK  114  A    between atoms: _281  and  _282
REMARK  115  A    between atoms: _282  and  _283
REMARK  116  A    between atoms: _292  and  _294
REMARK  117  A    between atoms: _294  and  _295
REMARK  118  A    between atoms: _294  and  _297
REMARK  119  A    between atoms: _297  and  _298
REMARK  120  A    between atoms: _301  and  _303
REMARK  121  A    between atoms: _303  and  _304
REMARK  122  A    between atoms: _306  and  _308
REMARK  123  A    between atoms: _308  and  _309
REMARK  124  A    between atoms: _308  and  _311
REMARK  125  A    between atoms: _311  and  _312
REMARK  126  A    between atoms: _314  and  _316
REMARK  127  A    between atoms: _316  and  _317
REMARK  128  A    between atoms: _316  and  _319
REMARK  129  A    between atoms: _319  and  _320
REMARK  130  A    between atoms: _323  and  _325
REMARK  131  A    between atoms: _325  and  _326
REMARK  132  A    between atoms: _325  and  _328
REMARK  133  A    between atoms: _328  and  _329
REMARK  134  A    between atoms: _329  and  _330
REMARK  135  A    between atoms: _332  and  _334
REMARK  136  A    between atoms: _334  and  _335
REMARK  137  A    between atoms: _334  and  _337
REMARK  138  A    between atoms: _337  and  _338
REMARK  139  A    between atoms: _341  and  _343
REMARK  140  A    between atoms: _343  and  _344
REMARK  141  A    between atoms: _343  and  _346
REMARK  142  A    between atoms: _346  and  _347
REMARK  143  A    between atoms: _353  and  _355
REMARK  144  A    between atoms: _355  and  _356
REMARK  145  A    between atoms: _355  and  _358
REMARK  146  A    between atoms: _358  and  _359
REMARK  147  A    between atoms: _365  and  _367
REMARK  148  A    between atoms: _367  and  _368
REMARK  149  A    between atoms: _367  and  _370
REMARK  150  A    between atoms: _373  and  _375
REMARK  151  A    between atoms: _375  and  _376
REMARK  152  A    between atoms: _375  and  _378
REMARK  153  A    between atoms: _378  and  _379
REMARK  154  A    between atoms: _379  and  _380
REMARK  155  A    between atoms: _380  and  _381
REMARK  156  A    between atoms: _390  and  _392
REMARK  157  A    between atoms: _392  and  _393
REMARK  158  A    between atoms: _392  and  _395
REMARK  159  A    between atoms: _395  and  _396
REMARK  160  A    between atoms: _401  and  _403
REMARK  161  A    between atoms: _403  and  _404
REMARK  162  A    between atoms: _403  and  _406
REMARK  163  A    between atoms: _406  and  _407
REMARK  164  A    between atoms: _409  and  _411
REMARK  165  A    between atoms: _411  and  _412
REMARK  166  A    between atoms: _411  and  _414
REMARK  167  A    between atoms: _414  and  _415
REMARK  168  A    between atoms: _418  and  _420
REMARK  169  A    between atoms: _420  and  _421
REMARK  170  A    between atoms: _423  and  _425
REMARK  171  A    between atoms: _425  and  _426
REMARK  172  A    between atoms: _425  and  _428
REMARK  173  A    between atoms: _428  and  _429
REMARK  174  A    between atoms: _432  and  _434
REMARK  175  A    between atoms: _434  and  _435
REMARK  176  A    between atoms: _434  and  _437
REMARK  177  A    between atoms: _437  and  _438
REMARK  178  A    between atoms: _441  and  _443
REMARK  179  A    between atoms: _443  and  _444
REMARK  180  A    between atoms: _443  and  _446
REMARK  181  A    between atoms: _446  and  _447
REMARK  182  A    between atoms: _450  and  _452
REMARK  183  A    between atoms: _452  and  _453
REMARK  184  A    between atoms: _452  and  _455
REMARK  185  A    between atoms: _455  and  _456
REMARK  186  A    between atoms: _456  and  _457
REMARK  187  A    between atoms: _459  and  _461
REMARK  188  A    between atoms: _461  and  _462
REMARK  189  A    between atoms: _461  and  _464
REMARK  190  A    between atoms: _464  and  _465
REMARK  191  A    between atoms: _465  and  _466
REMARK  192  A    between atoms: _469  and  _471
REMARK  193  A    between atoms: _471  and  _472
REMARK  194  A    between atoms: _471  and  _474
REMARK  195  A    between atoms: _474  and  _475
REMARK  196  A    between atoms: _477  and  _479
REMARK  197  A    between atoms: _479  and  _480
REMARK  198  A    between atoms: _479  and  _482
REMARK  199  A    between atoms: _482  and  _483
REMARK  200  A    between atoms: _486  and  _488
REMARK  201  A    between atoms: _488  and  _489
REMARK  202  A    between atoms: _488  and  _491
REMARK  203  A    between atoms: _491  and  _492
REMARK  204  A    between atoms: _494  and  _496
REMARK  205  A    between atoms: _496  and  _497
REMARK  206  A    between atoms: _496  and  _499
REMARK  207  A    between atoms: _499  and  _500
REMARK  208  A    between atoms: _503  and  _505
REMARK  209  A    between atoms: _505  and  _506
REMARK  210  A    between atoms: _505  and  _508
REMARK  211  A    between atoms: _508  and  _509
REMARK  212  A    between atoms: _514  and  _515
REMARK  213  A    between atoms: _517  and  _519
REMARK  214  A    between atoms: _519  and  _520
REMARK  215  A    between atoms: _519  and  _522
REMARK  216  A    between atoms: _525  and  _527
REMARK  217  A    between atoms: _527  and  _528
REMARK  218  A    between atoms: _527  and  _530
REMARK  219  A    between atoms: _530  and  _531
REMARK  220  A    between atoms: _531  and  _532
REMARK  221  A    between atoms: _532  and  _533
REMARK  222  A    between atoms: _533  and  _534
REMARK  223  A    between atoms: _538  and  _540
REMARK  224  A    between atoms: _540  and  _541
REMARK  225  A    between atoms: _543  and  _545
REMARK  226  A    between atoms: _545  and  _546
REMARK  227  A    between atoms: _545  and  _548
REMARK  228  A    between atoms: _548  and  _549
REMARK  229  A    between atoms: _554  and  _555
REMARK  230  A    between atoms: _557  and  _559
REMARK  231  A    between atoms: _559  and  _560
REMARK  232  A    between atoms: _562  and  _564
REMARK  233  A    between atoms: _564  and  _565
REMARK  234  A    between atoms: _564  and  _567
REMARK  235  A    between atoms: _567  and  _568
REMARK                            x       y       z     vdW  Elec       q    Type
REMARK                         _______ _______ _______ _____ _____    ______ ____
ROOT
ATOM      1  O   HOH     1      -1.608  20.294  14.752  0.00  0.00    +0.000 OA
ENDROOT
TORSDOF 0
REMARK  Name = ../refined-set-2016/3fv1/3fv1_pocket.pdb
REMARK  235 active torsions:
REMARK  status: ('A' for Active; 'I' for Inactive)
REMARK    1  A    between atoms: _1  and  _3
REMARK    2  A    between atoms: _3  and  _4
REMARK    3  A    between atoms: _3  and  _6
REMARK    4  A    between atoms: _6  and  _7
REMARK    5  A    between atoms: _10  and  _12
REMARK    6  A    between atoms: _12  and  _13
REMARK    7  A    between atoms: _12  and  _15
REMARK    8  A    between atoms: _15  and  _16
REMARK    9  A    between atoms: _19  and  _21
REMARK   10  A    between atoms: _21  and  _22
REMARK   11  A    between atoms: _21  and  _24
REMARK   12  A    between atoms: _24  and  _25
REMARK   13  A    between atoms: _25  and  _26
REMARK   14  A    between atoms: _29  and  _31
REMARK   15  A    between atoms: _31  and  _32
REMARK   16  A    between atoms: _31  and  _34
REMARK   17  A    between atoms: _34  and  _35
REMARK   18  A    between atoms: _35  and  _36
REMARK   19  A    between atoms: _40  and  _41
REMARK   20  A    between atoms: _46  and  _48
REMARK   21  A    between atoms: _48  and  _49
REMARK   22  A    between atoms: _48  and  _51
REMARK   23  A    between atoms: _51  and  _52
REMARK   24  A    between atoms: _57  and  _58
REMARK   25  A    between atoms: _60  and  _62
REMARK   26  A    between atoms: _62  and  _63
REMARK   27  A    between atoms: _62  and  _65
REMARK   28  A    between atoms: _67  and  _69
REMARK   29  A    between atoms: _69  and  _70
REMARK   30  A    between atoms: _69  and  _72
REMARK   31  A    between atoms: _72  and  _73
REMARK   32  A    between atoms: _73  and  _74
REMARK   33  A    between atoms: _74  and  _75
REMARK   34  A    between atoms: _75  and  _76
REMARK   35  A    between atoms: _80  and  _82
REMARK   36  A    between atoms: _82  and  _83
REMARK   37  A    between atoms: _82  and  _85
REMARK   38  A    between atoms: _85  and  _86
REMARK   39  A    between atoms: _91  and  _92
REMARK   40  A    between atoms: _94  and  _96
REMARK   41  A    between atoms: _96  and  _97
REMARK   42  A    between atoms: _99  and  _101
REMARK   43  A    between atoms: _101  and  _102
REMARK   44  A    between atoms: _105  and  _107
REMARK   45  A    between atoms: _107  and  _108
REMARK   46  A    between atoms: _107  and  _110
REMARK   47  A    between atoms: _110  and  _111
REMARK   48  A    between atoms: _121  and  _123
REMARK   49  A    between atoms: _123  and  _124
REMARK   50  A    between atoms: _126  and  _128
REMARK   51  A    between atoms: _128  and  _129
REMARK   52  A    between atoms: _128  and  _131
REMARK   53  A    between atoms: _131  and  _132
REMARK   54  A    between atoms: _132  and  _133
REMARK   55  A    between atoms: _135  and  _137
REMARK   56  A    between atoms: _137  and  _138
REMARK   57  A    between atoms: _137  and  _140
REMARK   58  A    between atoms: _143  and  _145
REMARK   59  A    between atoms: _145  and  _146
REMARK   60  A    between atoms: _150  and  _151
REMARK   61  A    between atoms: _156  and  _158
REMARK   62  A    between atoms: _158  and  _159
REMARK   63  A    between atoms: _158  and  _161
REMARK   64  A    between atoms: _161  and  _162
REMARK   65  A    between atoms: _165  and  _167
REMARK   66  A    between atoms: _167  and  _168
REMARK   67  A    between atoms: _167  and  _170
REMARK   68  A    between atoms: _170  and  _171
REMARK   69  A    between atoms: _174  and  _176
REMARK   70  A    between atoms: _176  and  _177
REMARK   71  A    between atoms: _176  and  _179
REMARK   72  A    between atoms: _179  and  _180
REMARK   73  A    between atoms: _183  and  _185
REMARK   74  A    between atoms: _185  and  _186
REMARK   75  A    between atoms: _185  and  _188
REMARK   76  A    between atoms: _188  and  _189
REMARK   77  A    between atoms: _192  and  _194
REMARK   78  A    between atoms: _194  and  _195
REMARK   79  A    between atoms: _194  and  _197
REMARK   80  A    between atoms: _197  and  _198
REMARK   81  A    between atoms: _198  and  _199
REMARK   82  A    between atoms: _199  and  _200
REMARK   83  A    between atoms: _209  and  _211
REMARK   84  A    between atoms: _211  and  _212
REMARK   85  A    between atoms: _211  and  _214
REMARK   86  A    between atoms: _214  and  _215
REMARK   87  A    between atoms: _221  and  _223
REMARK   88  A    between atoms: _223  and  _224
REMARK   89  A    between atoms: _223  and  _226
REMARK   90  A    between atoms: _226  and  _227
REMARK   91  A    between atoms: _230  and  _232
REMARK   92  A    between atoms: _232  and  _233
REMARK   93  A    between atoms: _235  and  _237
REMARK   94  A    between atoms: _237  and  _238
REMARK   95  A    between atoms: _237  and  _240
REMARK   96  A    between atoms: _240  and  _241
REMARK   97  A    between atoms: _244  and  _246
REMARK   98  A    between atoms: _246  and  _247
REMARK   99  A    between atoms: _246  and  _249
REMARK  100  A    between atoms: _249  and  _250
REMARK  101  A    between atoms: _252  and  _254
REMARK  102  A    between atoms: _254  and  _255
REMARK  103  A    between atoms: _254  and  _257
REMARK  104  A    between atoms: _257  and  _258
REMARK  105  A    between atoms: _261  and  _263
REMARK  106  A    between atoms: _263  and  _264
REMARK  107  A    between atoms: _267  and  _269
REMARK  108  A    between atoms: _269  and  _270
REMARK  109  A    between atoms: _269  and  _272
REMARK  110  A    between atoms: _275  and  _277
REMARK  111  A    between atoms: _277  and  _278
REMARK  112  A    between atoms: _277  and  _280
REMARK  113  A    between atoms: _280  and  _281
REMARK  114  A    between atoms: _281  and  _282
REMARK  115  A    between atoms: _282  and  _283
REMARK  116  A    between atoms: _292  and  _294
REMARK  117  A    between atoms: _294  and  _295
REMARK  118  A    between atoms: _294  and  _297
REMARK  119  A    between atoms: _297  and  _298
REMARK  120  A    between atoms: _301  and  _303
REMARK  121  A    between atoms: _303  and  _304
REMARK  122  A    between atoms: _306  and  _308
REMARK  123  A    between atoms: _308  and  _309
REMARK  124  A    between atoms: _308  and  _311
REMARK  125  A    between atoms: _311  and  _312
REMARK  126  A    between atoms: _314  and  _316
REMARK  127  A    between atoms: _316  and  _317
REMARK  128  A    between atoms: _316  and  _319
REMARK  129  A    between atoms: _319  and  _320
REMARK  130  A    between atoms: _323  and  _325
REMARK  131  A    between atoms: _325  and  _326
REMARK  132  A    between atoms: _325  and  _328
REMARK  133  A    between atoms: _328  and  _329
REMARK  134  A    between atoms: _329  and  _330
REMARK  135  A    between atoms: _332  and  _334
REMARK  136  A    between atoms: _334  and  _335
REMARK  137  A    between atoms: _334  and  _337
REMARK  138  A    between atoms: _337  and  _338
REMARK  139  A    between atoms: _341  and  _343
REMARK  140  A    between atoms: _343  and  _344
REMARK  141  A    between atoms: _343  and  _346
REMARK  142  A    between atoms: _346  and  _347
REMARK  143  A    between atoms: _353  and  _355
REMARK  144  A    between atoms: _355  and  _356
REMARK  145  A    between atoms: _355  and  _358
REMARK  146  A    between atoms: _358  and  _359
REMARK  147  A    between atoms: _365  and  _367
REMARK  148  A    between atoms: _367  and  _368
REMARK  149  A    between atoms: _367  and  _370
REMARK  150  A    between atoms: _373  and  _375
REMARK  151  A    between atoms: _375  and  _376
REMARK  152  A    between atoms: _375  and  _378
REMARK  153  A    between atoms: _378  and  _379
REMARK  154  A    between atoms: _379  and  _380
REMARK  155  A    between atoms: _380  and  _381
REMARK  156  A    between atoms: _390  and  _392
REMARK  157  A    between atoms: _392  and  _393
REMARK  158  A    between atoms: _392  and  _395
REMARK  159  A    between atoms: _395  and  _396
REMARK  160  A    between atoms: _401  and  _403
REMARK  161  A    between atoms: _403  and  _404
REMARK  162  A    between atoms: _403  and  _406
REMARK  163  A    between atoms: _406  and  _407
REMARK  164  A    between atoms: _409  and  _411
REMARK  165  A    between atoms: _411  and  _412
REMARK  166  A    between atoms: _411  and  _414
REMARK  167  A    between atoms: _414  and  _415
REMARK  168  A    between atoms: _418  and  _420
REMARK  169  A    between atoms: _420  and  _421
REMARK  170  A    between atoms: _423  and  _425
REMARK  171  A    between atoms: _425  and  _426
REMARK  172  A    between atoms: _425  and  _428
REMARK  173  A    between atoms: _428  and  _429
REMARK  174  A    between atoms: _432  and  _434
REMARK  175  A    between atoms: _434  and  _435
REMARK  176  A    between atoms: _434  and  _437
REMARK  177  A    between atoms: _437  and  _438
REMARK  178  A    between atoms: _441  and  _443
REMARK  179  A    between atoms: _443  and  _444
REMARK  180  A    between atoms: _443  and  _446
REMARK  181  A    between atoms: _446  and  _447
REMARK  182  A    between atoms: _450  and  _452
REMARK  183  A    between atoms: _452  and  _453
REMARK  184  A    between atoms: _452  and  _455
REMARK  185  A    between atoms: _455  and  _456
REMARK  186  A    between atoms: _456  and  _457
REMARK  187  A    between atoms: _459  and  _461
REMARK  188  A    between atoms: _461  and  _462
REMARK  189  A    between atoms: _461  and  _464
REMARK  190  A    between atoms: _464  and  _465
REMARK  191  A    between atoms: _465  and  _466
REMARK  192  A    between atoms: _469  and  _471
REMARK  193  A    between atoms: _471  and  _472
REMARK  194  A    between atoms: _471  and  _474
REMARK  195  A    between atoms: _474  and  _475
REMARK  196  A    between atoms: _477  and  _479
REMARK  197  A    between atoms: _479  and  _480
REMARK  198  A    between atoms: _479  and  _482
REMARK  199  A    between atoms: _482  and  _483
REMARK  200  A    between atoms: _486  and  _488
REMARK  201  A    between atoms: _488  and  _489
REMARK  202  A    between atoms: _488  and  _491
REMARK  203  A    between atoms: _491  and  _492
REMARK  204  A    between atoms: _494  and  _496
REMARK  205  A    between atoms: _496  and  _497
REMARK  206  A    between atoms: _496  and  _499
REMARK  207  A    between atoms: _499  and  _500
REMARK  208  A    between atoms: _503  and  _505
REMARK  209  A    between atoms: _505  and  _506
REMARK  210  A    between atoms: _505  and  _508
REMARK  211  A    between atoms: _508  and  _509
REMARK  212  A    between atoms: _514  and  _515
REMARK  213  A    between atoms: _517  and  _519
REMARK  214  A    between atoms: _519  and  _520
REMARK  215  A    between atoms: _519  and  _522
REMARK  216  A    between atoms: _525  and  _527
REMARK  217  A    between atoms: _527  and  _528
REMARK  218  A    between atoms: _527  and  _530
REMARK  219  A    between atoms: _530  and  _531
REMARK  220  A    between atoms: _531  and  _532
REMARK  221  A    between atoms: _532  and  _533
REMARK  222  A    between atoms: _533  and  _534
REMARK  223  A    between atoms: _538  and  _540
REMARK  224  A    between atoms: _540  and  _541
REMARK  225  A    between atoms: _543  and  _545
REMARK  226  A    between atoms: _545  and  _546
REMARK  227  A    between atoms: _545  and  _548
REMARK  228  A    between atoms: _548  and  _549
REMARK  229  A    between atoms: _554  and  _555
REMARK  230  A    between atoms: _557  and  _559
REMARK  231  A    between atoms: _559  and  _560
REMARK  232  A    between atoms: _562  and  _564
REMARK  233  A    between atoms: _564  and  _565
REMARK  234  A    between atoms: _564  and  _567
REMARK  235  A    between atoms: _567  and  _568
REMARK                            x       y       z     vdW  Elec       q    Type
REMARK                         _______ _______ _______ _____ _____    ______ ____
ROOT
ATOM      1  O   HOH     1     -10.701  18.901  21.654  0.00  0.00    +0.000 OA
ENDROOT
TORSDOF 0
