REMARK  Name = ../refined-set-2016/1bnw/1bnw_pocket.pdb
REMARK  149 active torsions:
REMARK  status: ('A' for Active; 'I' for Inactive)
REMARK    1  A    between atoms: _1  and  _3
REMARK    2  A    between atoms: _3  and  _4
REMARK    3  A    between atoms: _3  and  _6
REMARK    4  A    between atoms: _6  and  _7
REMARK    5  A    between atoms: _17  and  _19
REMARK    6  A    between atoms: _19  and  _20
REMARK    7  A    between atoms: _19  and  _22
REMARK    8  A    between atoms: _22  and  _23
REMARK    9  A    between atoms: _28  and  _29
REMARK   10  A    between atoms: _31  and  _33
REMARK   11  A    between atoms: _33  and  _34
REMARK   12  A    between atoms: _33  and  _36
REMARK   13  A    between atoms: _36  and  _37
REMARK   14  A    between atoms: _40  and  _41
REMARK   15  A    between atoms: _46  and  _48
REMARK   16  A    between atoms: _48  and  _49
REMARK   17  A    between atoms: _48  and  _51
REMARK   18  A    between atoms: _51  and  _52
REMARK   19  A    between atoms: _57  and  _59
REMARK   20  A    between atoms: _59  and  _60
REMARK   21  A    between atoms: _63  and  _65
REMARK   22  A    between atoms: _65  and  _66
REMARK   23  A    between atoms: _65  and  _68
REMARK   24  A    between atoms: _68  and  _69
REMARK   25  A    between atoms: _74  and  _76
REMARK   26  A    between atoms: _76  and  _77
REMARK   27  A    between atoms: _76  and  _79
REMARK   28  A    between atoms: _79  and  _80
REMARK   29  A    between atoms: _83  and  _85
REMARK   30  A    between atoms: _85  and  _86
REMARK   31  A    between atoms: _85  and  _88
REMARK   32  A    between atoms: _88  and  _89
REMARK   33  A    between atoms: _89  and  _90
REMARK   34  A    between atoms: _95  and  _97
REMARK   35  A    between atoms: _97  and  _98
REMARK   36  A    between atoms: _97  and  _100
REMARK   37  A    between atoms: _100  and  _101
REMARK   38  A    between atoms: _107  and  _109
REMARK   39  A    between atoms: _120  and  _123
REMARK   40  A    between atoms: _123  and  _124
REMARK   41  A    between atoms: _132  and  _133
REMARK   42  A    between atoms: _141  and  _143
REMARK   43  A    between atoms: _143  and  _144
REMARK   44  A    between atoms: _143  and  _146
REMARK   45  A    between atoms: _146  and  _147
REMARK   46  A    between atoms: _147  and  _148
REMARK   47  A    between atoms: _151  and  _153
REMARK   48  A    between atoms: _153  and  _154
REMARK   49  A    between atoms: _153  and  _156
REMARK   50  A    between atoms: _156  and  _157
REMARK   51  A    between atoms: _162  and  _164
REMARK   52  A    between atoms: _164  and  _165
REMARK   53  A    between atoms: _164  and  _167
REMARK   54  A    between atoms: _167  and  _168
REMARK   55  A    between atoms: _168  and  _169
REMARK   56  A    between atoms: _172  and  _174
REMARK   57  A    between atoms: _174  and  _175
REMARK   58  A    between atoms: _174  and  _177
REMARK   59  A    between atoms: _177  and  _178
REMARK   60  A    between atoms: _181  and  _183
REMARK   61  A    between atoms: _183  and  _184
REMARK   62  A    between atoms: _183  and  _186
REMARK   63  A    between atoms: _186  and  _187
REMARK   64  A    between atoms: _188  and  ZN_424
REMARK   65  A    between atoms: _192  and  _194
REMARK   66  A    between atoms: _194  and  _195
REMARK   67  A    between atoms: _194  and  _197
REMARK   68  A    between atoms: _197  and  _198
REMARK   69  A    between atoms: _201  and  _203
REMARK   70  A    between atoms: _203  and  _204
REMARK   71  A    between atoms: _203  and  _206
REMARK   72  A    between atoms: _209  and  _211
REMARK   73  A    between atoms: _211  and  _212
REMARK   74  A    between atoms: _211  and  _214
REMARK   75  A    between atoms: _214  and  _215
REMARK   76  A    between atoms: _220  and  _222
REMARK   77  A    between atoms: _222  and  _223
REMARK   78  A    between atoms: _222  and  _225
REMARK   79  A    between atoms: _225  and  _226
REMARK   80  A    between atoms: _236  and  _238
REMARK   81  A    between atoms: _238  and  _239
REMARK   82  A    between atoms: _238  and  _241
REMARK   83  A    between atoms: _241  and  _242
REMARK   84  A    between atoms: _248  and  _250
REMARK   85  A    between atoms: _250  and  _251
REMARK   86  A    between atoms: _253  and  _255
REMARK   87  A    between atoms: _255  and  _256
REMARK   88  A    between atoms: _255  and  _258
REMARK   89  A    between atoms: _261  and  _263
REMARK   90  A    between atoms: _263  and  _264
REMARK   91  A    between atoms: _263  and  _266
REMARK   92  A    between atoms: _266  and  _267
REMARK   93  A    between atoms: _270  and  _272
REMARK   94  A    between atoms: _272  and  _273
REMARK   95  A    between atoms: _276  and  _278
REMARK   96  A    between atoms: _278  and  _279
REMARK   97  A    between atoms: _278  and  _281
REMARK   98  A    between atoms: _284  and  _286
REMARK   99  A    between atoms: _286  and  _287
REMARK  100  A    between atoms: _286  and  _289
REMARK  101  A    between atoms: _289  and  _290
REMARK  102  A    between atoms: _293  and  _295
REMARK  103  A    between atoms: _295  and  _296
REMARK  104  A    between atoms: _298  and  _300
REMARK  105  A    between atoms: _300  and  _301
REMARK  106  A    between atoms: _300  and  _303
REMARK  107  A    between atoms: _303  and  _304
REMARK  108  A    between atoms: _306  and  _308
REMARK  109  A    between atoms: _308  and  _309
REMARK  110  A    between atoms: _308  and  _311
REMARK  111  A    between atoms: _311  and  _312
REMARK  112  A    between atoms: _315  and  _317
REMARK  113  A    between atoms: _317  and  _318
REMARK  114  A    between atoms: _317  and  _320
REMARK  115  A    between atoms: _320  and  _321
REMARK  116  A    between atoms: _324  and  _326
REMARK  117  A    between atoms: _326  and  _327
REMARK  118  A    between atoms: _326  and  _329
REMARK  119  A    between atoms: _329  and  _330
REMARK  120  A    between atoms: _334  and  _335
REMARK  121  A    between atoms: _341  and  _342
REMARK  122  A    between atoms: _347  and  _349
REMARK  123  A    between atoms: _349  and  _350
REMARK  124  A    between atoms: _349  and  _352
REMARK  125  A    between atoms: _352  and  _353
REMARK  126  A    between atoms: _356  and  _358
REMARK  127  A    between atoms: _358  and  _359
REMARK  128  A    between atoms: _358  and  _361
REMARK  129  A    between atoms: _361  and  _362
REMARK  130  A    between atoms: _365  and  _367
REMARK  131  A    between atoms: _367  and  _368
REMARK  132  A    between atoms: _367  and  _370
REMARK  133  A    between atoms: _372  and  _374
REMARK  134  A    between atoms: _374  and  _375
REMARK  135  A    between atoms: _374  and  _377
REMARK  136  A    between atoms: _380  and  _382
REMARK  137  A    between atoms: _382  and  _383
REMARK  138  A    between atoms: _382  and  _385
REMARK  139  A    between atoms: _385  and  _386
REMARK  140  A    between atoms: _396  and  _398
REMARK  141  A    between atoms: _398  and  _399
REMARK  142  A    between atoms: _398  and  _401
REMARK  143  A    between atoms: _401  and  _402
REMARK  144  A    between atoms: _407  and  _409
REMARK  145  A    between atoms: _409  and  _410
REMARK  146  A    between atoms: _409  and  _412
REMARK  147  A    between atoms: _412  and  _413
REMARK  148  A    between atoms: _413  and  _414
REMARK  149  A    between atoms: _414  and  _415
REMARK                            x       y       z     vdW  Elec       q    Type
REMARK                         _______ _______ _______ _____ _____    ______ ____
ROOT
ATOM      1  CG  TRP A   1       5.662   0.224  12.157  0.00  0.00    -0.002 A 
ATOM      2  CD2 TRP A   1       4.370  -0.270  12.086  0.00  0.00    +0.013 A 
ATOM      3  CE3 TRP A   1       3.711  -1.480  12.299  0.00  0.00    +0.001 A 
ATOM      4  CZ3 TRP A   1       2.329  -1.546  12.112  0.00  0.00    +0.000 A 
ATOM      5  CH2 TRP A   1       1.619  -0.421  11.719  0.00  0.00    +0.001 A 
ATOM      6  CZ2 TRP A   1       2.275   0.786  11.506  0.00  0.00    +0.017 A 
ATOM      7  CE2 TRP A   1       3.656   0.860  11.691  0.00  0.00    +0.056 A 
ATOM      8  NE1 TRP A   1       4.506   1.904  11.563  0.00  0.00    -0.352 N 
ATOM      9  HE1 TRP A   1       4.217   2.863  11.283  0.00  0.00    +0.166 HD
ATOM     10  CD1 TRP A   1       5.748   1.552  11.838  0.00  0.00    +0.068 A 
ENDROOT
BRANCH   1  11
ATOM     11  CB  TRP A   1       6.901  -0.586  12.532  0.00  0.00    +0.053 C 
BRANCH  11  12
ATOM     12  CA  TRP A   1       7.626  -1.282  11.356  0.00  0.00    +0.137 C 
BRANCH  12  13
ATOM     13  N   TRP A   1       8.284  -0.259  10.566  0.00  0.00    -0.239 NA
ATOM     14  H   TRP A   1       7.994   0.734  10.670  0.00  0.00    +0.142 HD
ENDBRANCH  12  13
BRANCH  12  15
ATOM     15  C   TRP A   1       6.664  -2.091  10.520  0.00  0.00    +0.224 C 
ATOM     16  O   TRP A   1       6.243  -1.641   9.449  0.00  0.00    -0.287 OA
ENDBRANCH  12  15
ENDBRANCH  11  12
ENDBRANCH   1  11
TORSDOF 4
REMARK  Name = ../refined-set-2016/1bnw/1bnw_pocket.pdb
REMARK  149 active torsions:
REMARK  status: ('A' for Active; 'I' for Inactive)
REMARK    1  A    between atoms: _1  and  _3
REMARK    2  A    between atoms: _3  and  _4
REMARK    3  A    between atoms: _3  and  _6
REMARK    4  A    between atoms: _6  and  _7
REMARK    5  A    between atoms: _17  and  _19
REMARK    6  A    between atoms: _19  and  _20
REMARK    7  A    between atoms: _19  and  _22
REMARK    8  A    between atoms: _22  and  _23
REMARK    9  A    between atoms: _28  and  _29
REMARK   10  A    between atoms: _31  and  _33
REMARK   11  A    between atoms: _33  and  _34
REMARK   12  A    between atoms: _33  and  _36
REMARK   13  A    between atoms: _36  and  _37
REMARK   14  A    between atoms: _40  and  _41
REMARK   15  A    between atoms: _46  and  _48
REMARK   16  A    between atoms: _48  and  _49
REMARK   17  A    between atoms: _48  and  _51
REMARK   18  A    between atoms: _51  and  _52
REMARK   19  A    between atoms: _57  and  _59
REMARK   20  A    between atoms: _59  and  _60
REMARK   21  A    between atoms: _63  and  _65
REMARK   22  A    between atoms: _65  and  _66
REMARK   23  A    between atoms: _65  and  _68
REMARK   24  A    between atoms: _68  and  _69
REMARK   25  A    between atoms: _74  and  _76
REMARK   26  A    between atoms: _76  and  _77
REMARK   27  A    between atoms: _76  and  _79
REMARK   28  A    between atoms: _79  and  _80
REMARK   29  A    between atoms: _83  and  _85
REMARK   30  A    between atoms: _85  and  _86
REMARK   31  A    between atoms: _85  and  _88
REMARK   32  A    between atoms: _88  and  _89
REMARK   33  A    between atoms: _89  and  _90
REMARK   34  A    between atoms: _95  and  _97
REMARK   35  A    between atoms: _97  and  _98
REMARK   36  A    between atoms: _97  and  _100
REMARK   37  A    between atoms: _100  and  _101
REMARK   38  A    between atoms: _107  and  _109
REMARK   39  A    between atoms: _120  and  _123
REMARK   40  A    between atoms: _123  and  _124
REMARK   41  A    between atoms: _132  and  _133
REMARK   42  A    between atoms: _141  and  _143
REMARK   43  A    between atoms: _143  and  _144
REMARK   44  A    between atoms: _143  and  _146
REMARK   45  A    between atoms: _146  and  _147
REMARK   46  A    between atoms: _147  and  _148
REMARK   47  A    between atoms: _151  and  _153
REMARK   48  A    between atoms: _153  and  _154
REMARK   49  A    between atoms: _153  and  _156
REMARK   50  A    between atoms: _156  and  _157
REMARK   51  A    between atoms: _162  and  _164
REMARK   52  A    between atoms: _164  and  _165
REMARK   53  A    between atoms: _164  and  _167
REMARK   54  A    between atoms: _167  and  _168
REMARK   55  A    between atoms: _168  and  _169
REMARK   56  A    between atoms: _172  and  _174
REMARK   57  A    between atoms: _174  and  _175
REMARK   58  A    between atoms: _174  and  _177
REMARK   59  A    between atoms: _177  and  _178
REMARK   60  A    between atoms: _181  and  _183
REMARK   61  A    between atoms: _183  and  _184
REMARK   62  A    between atoms: _183  and  _186
REMARK   63  A    between atoms: _186  and  _187
REMARK   64  A    between atoms: _188  and  ZN_424
REMARK   65  A    between atoms: _192  and  _194
REMARK   66  A    between atoms: _194  and  _195
REMARK   67  A    between atoms: _194  and  _197
REMARK   68  A    between atoms: _197  and  _198
REMARK   69  A    between atoms: _201  and  _203
REMARK   70  A    between atoms: _203  and  _204
REMARK   71  A    between atoms: _203  and  _206
REMARK   72  A    between atoms: _209  and  _211
REMARK   73  A    between atoms: _211  and  _212
REMARK   74  A    between atoms: _211  and  _214
REMARK   75  A    between atoms: _214  and  _215
REMARK   76  A    between atoms: _220  and  _222
REMARK   77  A    between atoms: _222  and  _223
REMARK   78  A    between atoms: _222  and  _225
REMARK   79  A    between atoms: _225  and  _226
REMARK   80  A    between atoms: _236  and  _238
REMARK   81  A    between atoms: _238  and  _239
REMARK   82  A    between atoms: _238  and  _241
REMARK   83  A    between atoms: _241  and  _242
REMARK   84  A    between atoms: _248  and  _250
REMARK   85  A    between atoms: _250  and  _251
REMARK   86  A    between atoms: _253  and  _255
REMARK   87  A    between atoms: _255  and  _256
REMARK   88  A    between atoms: _255  and  _258
REMARK   89  A    between atoms: _261  and  _263
REMARK   90  A    between atoms: _263  and  _264
REMARK   91  A    between atoms: _263  and  _266
REMARK   92  A    between atoms: _266  and  _267
REMARK   93  A    between atoms: _270  and  _272
REMARK   94  A    between atoms: _272  and  _273
REMARK   95  A    between atoms: _276  and  _278
REMARK   96  A    between atoms: _278  and  _279
REMARK   97  A    between atoms: _278  and  _281
REMARK   98  A    between atoms: _284  and  _286
REMARK   99  A    between atoms: _286  and  _287
REMARK  100  A    between atoms: _286  and  _289
REMARK  101  A    between atoms: _289  and  _290
REMARK  102  A    between atoms: _293  and  _295
REMARK  103  A    between atoms: _295  and  _296
REMARK  104  A    between atoms: _298  and  _300
REMARK  105  A    between atoms: _300  and  _301
REMARK  106  A    between atoms: _300  and  _303
REMARK  107  A    between atoms: _303  and  _304
REMARK  108  A    between atoms: _306  and  _308
REMARK  109  A    between atoms: _308  and  _309
REMARK  110  A    between atoms: _308  and  _311
REMARK  111  A    between atoms: _311  and  _312
REMARK  112  A    between atoms: _315  and  _317
REMARK  113  A    between atoms: _317  and  _318
REMARK  114  A    between atoms: _317  and  _320
REMARK  115  A    between atoms: _320  and  _321
REMARK  116  A    between atoms: _324  and  _326
REMARK  117  A    between atoms: _326  and  _327
REMARK  118  A    between atoms: _326  and  _329
REMARK  119  A    between atoms: _329  and  _330
REMARK  120  A    between atoms: _334  and  _335
REMARK  121  A    between atoms: _341  and  _342
REMARK  122  A    between atoms: _347  and  _349
REMARK  123  A    between atoms: _349  and  _350
REMARK  124  A    between atoms: _349  and  _352
REMARK  125  A    between atoms: _352  and  _353
REMARK  126  A    between atoms: _356  and  _358
REMARK  127  A    between atoms: _358  and  _359
REMARK  128  A    between atoms: _358  and  _361
REMARK  129  A    between atoms: _361  and  _362
REMARK  130  A    between atoms: _365  and  _367
REMARK  131  A    between atoms: _367  and  _368
REMARK  132  A    between atoms: _367  and  _370
REMARK  133  A    between atoms: _372  and  _374
REMARK  134  A    between atoms: _374  and  _375
REMARK  135  A    between atoms: _374  and  _377
REMARK  136  A    between atoms: _380  and  _382
REMARK  137  A    between atoms: _382  and  _383
REMARK  138  A    between atoms: _382  and  _385
REMARK  139  A    between atoms: _385  and  _386
REMARK  140  A    between atoms: _396  and  _398
REMARK  141  A    between atoms: _398  and  _399
REMARK  142  A    between atoms: _398  and  _401
REMARK  143  A    between atoms: _401  and  _402
REMARK  144  A    between atoms: _407  and  _409
REMARK  145  A    between atoms: _409  and  _410
REMARK  146  A    between atoms: _409  and  _412
REMARK  147  A    between atoms: _412  and  _413
REMARK  148  A    between atoms: _413  and  _414
REMARK  149  A    between atoms: _414  and  _415
REMARK                            x       y       z     vdW  Elec       q    Type
REMARK                         _______ _______ _______ _____ _____    ______ ____
ROOT
ATOM      1  CG  TYR A   1       2.039  -6.819  11.837  0.00  0.00    -0.020 A 
ATOM      2  CD2 TYR A   1       1.650  -6.891  13.188  0.00  0.00    -0.001 A 
ATOM      3  CE2 TYR A   1       0.825  -5.908  13.741  0.00  0.00    +0.036 A 
ATOM      4  CZ  TYR A   1       0.392  -4.864  12.923  0.00  0.00    +0.134 A 
ATOM      5  CE1 TYR A   1       0.771  -4.778  11.572  0.00  0.00    +0.036 A 
ATOM      6  CD1 TYR A   1       1.600  -5.767  11.032  0.00  0.00    -0.001 A 
ENDROOT
BRANCH   4   7
ATOM      7  OH  TYR A   1      -0.460  -3.916  13.439  0.00  0.00    -0.506 OA
ATOM      8  HH  TYR A   1      -0.630  -4.112  14.394  0.00  0.00    +0.292 HD
ENDBRANCH   4   7
BRANCH   1   9
ATOM      9  CB  TYR A   1       2.975  -7.879  11.276  0.00  0.00    +0.051 C 
BRANCH   9  10
ATOM     10  CA  TYR A   1       4.444  -7.541  11.557  0.00  0.00    +0.137 C 
BRANCH  10  11
ATOM     11  N   TYR A   1       4.789  -6.378  10.775  0.00  0.00    -0.239 NA
ATOM     12  H   TYR A   1       4.820  -6.461   9.739  0.00  0.00    +0.142 HD
ENDBRANCH  10  11
BRANCH  10  13
ATOM     13  C   TYR A   1       5.336  -8.741  11.310  0.00  0.00    +0.224 C 
ATOM     14  O   TYR A   1       5.084  -9.833  11.814  0.00  0.00    -0.287 OA
ENDBRANCH  10  13
ENDBRANCH   9  10
ENDBRANCH   1   9
TORSDOF 5
REMARK  Name = ../refined-set-2016/1bnw/1bnw_pocket.pdb
REMARK  149 active torsions:
REMARK  status: ('A' for Active; 'I' for Inactive)
REMARK    1  A    between atoms: _1  and  _3
REMARK    2  A    between atoms: _3  and  _4
REMARK    3  A    between atoms: _3  and  _6
REMARK    4  A    between atoms: _6  and  _7
REMARK    5  A    between atoms: _17  and  _19
REMARK    6  A    between atoms: _19  and  _20
REMARK    7  A    between atoms: _19  and  _22
REMARK    8  A    between atoms: _22  and  _23
REMARK    9  A    between atoms: _28  and  _29
REMARK   10  A    between atoms: _31  and  _33
REMARK   11  A    between atoms: _33  and  _34
REMARK   12  A    between atoms: _33  and  _36
REMARK   13  A    between atoms: _36  and  _37
REMARK   14  A    between atoms: _40  and  _41
REMARK   15  A    between atoms: _46  and  _48
REMARK   16  A    between atoms: _48  and  _49
REMARK   17  A    between atoms: _48  and  _51
REMARK   18  A    between atoms: _51  and  _52
REMARK   19  A    between atoms: _57  and  _59
REMARK   20  A    between atoms: _59  and  _60
REMARK   21  A    between atoms: _63  and  _65
REMARK   22  A    between atoms: _65  and  _66
REMARK   23  A    between atoms: _65  and  _68
REMARK   24  A    between atoms: _68  and  _69
REMARK   25  A    between atoms: _74  and  _76
REMARK   26  A    between atoms: _76  and  _77
REMARK   27  A    between atoms: _76  and  _79
REMARK   28  A    between atoms: _79  and  _80
REMARK   29  A    between atoms: _83  and  _85
REMARK   30  A    between atoms: _85  and  _86
REMARK   31  A    between atoms: _85  and  _88
REMARK   32  A    between atoms: _88  and  _89
REMARK   33  A    between atoms: _89  and  _90
REMARK   34  A    between atoms: _95  and  _97
REMARK   35  A    between atoms: _97  and  _98
REMARK   36  A    between atoms: _97  and  _100
REMARK   37  A    between atoms: _100  and  _101
REMARK   38  A    between atoms: _107  and  _109
REMARK   39  A    between atoms: _120  and  _123
REMARK   40  A    between atoms: _123  and  _124
REMARK   41  A    between atoms: _132  and  _133
REMARK   42  A    between atoms: _141  and  _143
REMARK   43  A    between atoms: _143  and  _144
REMARK   44  A    between atoms: _143  and  _146
REMARK   45  A    between atoms: _146  and  _147
REMARK   46  A    between atoms: _147  and  _148
REMARK   47  A    between atoms: _151  and  _153
REMARK   48  A    between atoms: _153  and  _154
REMARK   49  A    between atoms: _153  and  _156
REMARK   50  A    between atoms: _156  and  _157
REMARK   51  A    between atoms: _162  and  _164
REMARK   52  A    between atoms: _164  and  _165
REMARK   53  A    between atoms: _164  and  _167
REMARK   54  A    between atoms: _167  and  _168
REMARK   55  A    between atoms: _168  and  _169
REMARK   56  A    between atoms: _172  and  _174
REMARK   57  A    between atoms: _174  and  _175
REMARK   58  A    between atoms: _174  and  _177
REMARK   59  A    between atoms: _177  and  _178
REMARK   60  A    between atoms: _181  and  _183
REMARK   61  A    between atoms: _183  and  _184
REMARK   62  A    between atoms: _183  and  _186
REMARK   63  A    between atoms: _186  and  _187
REMARK   64  A    between atoms: _188  and  ZN_424
REMARK   65  A    between atoms: _192  and  _194
REMARK   66  A    between atoms: _194  and  _195
REMARK   67  A    between atoms: _194  and  _197
REMARK   68  A    between atoms: _197  and  _198
REMARK   69  A    between atoms: _201  and  _203
REMARK   70  A    between atoms: _203  and  _204
REMARK   71  A    between atoms: _203  and  _206
REMARK   72  A    between atoms: _209  and  _211
REMARK   73  A    between atoms: _211  and  _212
REMARK   74  A    between atoms: _211  and  _214
REMARK   75  A    between atoms: _214  and  _215
REMARK   76  A    between atoms: _220  and  _222
REMARK   77  A    between atoms: _222  and  _223
REMARK   78  A    between atoms: _222  and  _225
REMARK   79  A    between atoms: _225  and  _226
REMARK   80  A    between atoms: _236  and  _238
REMARK   81  A    between atoms: _238  and  _239
REMARK   82  A    between atoms: _238  and  _241
REMARK   83  A    between atoms: _241  and  _242
REMARK   84  A    between atoms: _248  and  _250
REMARK   85  A    between atoms: _250  and  _251
REMARK   86  A    between atoms: _253  and  _255
REMARK   87  A    between atoms: _255  and  _256
REMARK   88  A    between atoms: _255  and  _258
REMARK   89  A    between atoms: _261  and  _263
REMARK   90  A    between atoms: _263  and  _264
REMARK   91  A    between atoms: _263  and  _266
REMARK   92  A    between atoms: _266  and  _267
REMARK   93  A    between atoms: _270  and  _272
REMARK   94  A    between atoms: _272  and  _273
REMARK   95  A    between atoms: _276  and  _278
REMARK   96  A    between atoms: _278  and  _279
REMARK   97  A    between atoms: _278  and  _281
REMARK   98  A    between atoms: _284  and  _286
REMARK   99  A    between atoms: _286  and  _287
REMARK  100  A    between atoms: _286  and  _289
REMARK  101  A    between atoms: _289  and  _290
REMARK  102  A    between atoms: _293  and  _295
REMARK  103  A    between atoms: _295  and  _296
REMARK  104  A    between atoms: _298  and  _300
REMARK  105  A    between atoms: _300  and  _301
REMARK  106  A    between atoms: _300  and  _303
REMARK  107  A    between atoms: _303  and  _304
REMARK  108  A    between atoms: _306  and  _308
REMARK  109  A    between atoms: _308  and  _309
REMARK  110  A    between atoms: _308  and  _311
REMARK  111  A    between atoms: _311  and  _312
REMARK  112  A    between atoms: _315  and  _317
REMARK  113  A    between atoms: _317  and  _318
REMARK  114  A    between atoms: _317  and  _320
REMARK  115  A    between atoms: _320  and  _321
REMARK  116  A    between atoms: _324  and  _326
REMARK  117  A    between atoms: _326  and  _327
REMARK  118  A    between atoms: _326  and  _329
REMARK  119  A    between atoms: _329  and  _330
REMARK  120  A    between atoms: _334  and  _335
REMARK  121  A    between atoms: _341  and  _342
REMARK  122  A    between atoms: _347  and  _349
REMARK  123  A    between atoms: _349  and  _350
REMARK  124  A    between atoms: _349  and  _352
REMARK  125  A    between atoms: _352  and  _353
REMARK  126  A    between atoms: _356  and  _358
REMARK  127  A    between atoms: _358  and  _359
REMARK  128  A    between atoms: _358  and  _361
REMARK  129  A    between atoms: _361  and  _362
REMARK  130  A    between atoms: _365  and  _367
REMARK  131  A    between atoms: _367  and  _368
REMARK  132  A    between atoms: _367  and  _370
REMARK  133  A    between atoms: _372  and  _374
REMARK  134  A    between atoms: _374  and  _375
REMARK  135  A    between atoms: _374  and  _377
REMARK  136  A    between atoms: _380  and  _382
REMARK  137  A    between atoms: _382  and  _383
REMARK  138  A    between atoms: _382  and  _385
REMARK  139  A    between atoms: _385  and  _386
REMARK  140  A    between atoms: _396  and  _398
REMARK  141  A    between atoms: _398  and  _399
REMARK  142  A    between atoms: _398  and  _401
REMARK  143  A    between atoms: _401  and  _402
REMARK  144  A    between atoms: _407  and  _409
REMARK  145  A    between atoms: _409  and  _410
REMARK  146  A    between atoms: _409  and  _412
REMARK  147  A    between atoms: _412  and  _413
REMARK  148  A    between atoms: _413  and  _414
REMARK  149  A    between atoms: _414  and  _415
REMARK                            x       y       z     vdW  Elec       q    Type
REMARK                         _______ _______ _______ _____ _____    ______ ____
ROOT
ATOM      1  C   SER A   1      -2.484  -3.125  23.483  0.00  0.00    +0.244 C 
ATOM      2  N   PRO A   2      -3.075  -4.276  23.175  0.00  0.00    -0.273 N 
ATOM      3  CA  PRO A   2      -4.281  -4.823  23.796  0.00  0.00    +0.140 C 
ATOM      4  CB  PRO A   2      -4.746  -5.801  22.776  0.00  0.00    +0.030 C 
ATOM      5  CG  PRO A   2      -3.422  -6.446  22.405  0.00  0.00    +0.024 C 
ATOM      6  CD  PRO A   2      -2.515  -5.231  22.237  0.00  0.00    +0.094 C 
ATOM      7  O   SER A   1      -1.491  -2.775  22.836  0.00  0.00    -0.273 OA
ENDROOT
BRANCH   3   8
ATOM      8  C   PRO A   2      -3.919  -5.455  25.145  0.00  0.00    +0.227 C 
ATOM      9  O   PRO A   2      -2.724  -5.466  25.476  0.00  0.00    -0.286 OA
ENDBRANCH   3   8
BRANCH   1  10
ATOM     10  CA  SER A   1      -3.011  -2.192  24.564  0.00  0.00    +0.175 C 
BRANCH  10  11
ATOM     11  N   SER A   1      -1.945  -1.286  24.952  0.00  0.00    -0.236 NA
ATOM     12  H   SER A   1      -1.498  -0.704  24.215  0.00  0.00    +0.142 HD
ENDBRANCH  10  11
BRANCH  10  13
ATOM     13  CB  SER A   1      -4.208  -1.414  24.016  0.00  0.00    +0.163 C 
BRANCH  13  14
ATOM     14  OG  SER A   1      -4.797  -0.583  25.001  0.00  0.00    -0.380 OA
ATOM     15  H   SER A   1      -5.110  -1.140  25.757  0.00  0.00    +0.211 HD
ENDBRANCH  13  14
ENDBRANCH  10  13
ENDBRANCH   1  10
TORSDOF 5
REMARK  Name = ../refined-set-2016/1bnw/1bnw_pocket.pdb
REMARK  149 active torsions:
REMARK  status: ('A' for Active; 'I' for Inactive)
REMARK    1  A    between atoms: _1  and  _3
REMARK    2  A    between atoms: _3  and  _4
REMARK    3  A    between atoms: _3  and  _6
REMARK    4  A    between atoms: _6  and  _7
REMARK    5  A    between atoms: _17  and  _19
REMARK    6  A    between atoms: _19  and  _20
REMARK    7  A    between atoms: _19  and  _22
REMARK    8  A    between atoms: _22  and  _23
REMARK    9  A    between atoms: _28  and  _29
REMARK   10  A    between atoms: _31  and  _33
REMARK   11  A    between atoms: _33  and  _34
REMARK   12  A    between atoms: _33  and  _36
REMARK   13  A    between atoms: _36  and  _37
REMARK   14  A    between atoms: _40  and  _41
REMARK   15  A    between atoms: _46  and  _48
REMARK   16  A    between atoms: _48  and  _49
REMARK   17  A    between atoms: _48  and  _51
REMARK   18  A    between atoms: _51  and  _52
REMARK   19  A    between atoms: _57  and  _59
REMARK   20  A    between atoms: _59  and  _60
REMARK   21  A    between atoms: _63  and  _65
REMARK   22  A    between atoms: _65  and  _66
REMARK   23  A    between atoms: _65  and  _68
REMARK   24  A    between atoms: _68  and  _69
REMARK   25  A    between atoms: _74  and  _76
REMARK   26  A    between atoms: _76  and  _77
REMARK   27  A    between atoms: _76  and  _79
REMARK   28  A    between atoms: _79  and  _80
REMARK   29  A    between atoms: _83  and  _85
REMARK   30  A    between atoms: _85  and  _86
REMARK   31  A    between atoms: _85  and  _88
REMARK   32  A    between atoms: _88  and  _89
REMARK   33  A    between atoms: _89  and  _90
REMARK   34  A    between atoms: _95  and  _97
REMARK   35  A    between atoms: _97  and  _98
REMARK   36  A    between atoms: _97  and  _100
REMARK   37  A    between atoms: _100  and  _101
REMARK   38  A    between atoms: _107  and  _109
REMARK   39  A    between atoms: _120  and  _123
REMARK   40  A    between atoms: _123  and  _124
REMARK   41  A    between atoms: _132  and  _133
REMARK   42  A    between atoms: _141  and  _143
REMARK   43  A    between atoms: _143  and  _144
REMARK   44  A    between atoms: _143  and  _146
REMARK   45  A    between atoms: _146  and  _147
REMARK   46  A    between atoms: _147  and  _148
REMARK   47  A    between atoms: _151  and  _153
REMARK   48  A    between atoms: _153  and  _154
REMARK   49  A    between atoms: _153  and  _156
REMARK   50  A    between atoms: _156  and  _157
REMARK   51  A    between atoms: _162  and  _164
REMARK   52  A    between atoms: _164  and  _165
REMARK   53  A    between atoms: _164  and  _167
REMARK   54  A    between atoms: _167  and  _168
REMARK   55  A    between atoms: _168  and  _169
REMARK   56  A    between atoms: _172  and  _174
REMARK   57  A    between atoms: _174  and  _175
REMARK   58  A    between atoms: _174  and  _177
REMARK   59  A    between atoms: _177  and  _178
REMARK   60  A    between atoms: _181  and  _183
REMARK   61  A    between atoms: _183  and  _184
REMARK   62  A    between atoms: _183  and  _186
REMARK   63  A    between atoms: _186  and  _187
REMARK   64  A    between atoms: _188  and  ZN_424
REMARK   65  A    between atoms: _192  and  _194
REMARK   66  A    between atoms: _194  and  _195
REMARK   67  A    between atoms: _194  and  _197
REMARK   68  A    between atoms: _197  and  _198
REMARK   69  A    between atoms: _201  and  _203
REMARK   70  A    between atoms: _203  and  _204
REMARK   71  A    between atoms: _203  and  _206
REMARK   72  A    between atoms: _209  and  _211
REMARK   73  A    between atoms: _211  and  _212
REMARK   74  A    between atoms: _211  and  _214
REMARK   75  A    between atoms: _214  and  _215
REMARK   76  A    between atoms: _220  and  _222
REMARK   77  A    between atoms: _222  and  _223
REMARK   78  A    between atoms: _222  and  _225
REMARK   79  A    between atoms: _225  and  _226
REMARK   80  A    between atoms: _236  and  _238
REMARK   81  A    between atoms: _238  and  _239
REMARK   82  A    between atoms: _238  and  _241
REMARK   83  A    between atoms: _241  and  _242
REMARK   84  A    between atoms: _248  and  _250
REMARK   85  A    between atoms: _250  and  _251
REMARK   86  A    between atoms: _253  and  _255
REMARK   87  A    between atoms: _255  and  _256
REMARK   88  A    between atoms: _255  and  _258
REMARK   89  A    between atoms: _261  and  _263
REMARK   90  A    between atoms: _263  and  _264
REMARK   91  A    between atoms: _263  and  _266
REMARK   92  A    between atoms: _266  and  _267
REMARK   93  A    between atoms: _270  and  _272
REMARK   94  A    between atoms: _272  and  _273
REMARK   95  A    between atoms: _276  and  _278
REMARK   96  A    between atoms: _278  and  _279
REMARK   97  A    between atoms: _278  and  _281
REMARK   98  A    between atoms: _284  and  _286
REMARK   99  A    between atoms: _286  and  _287
REMARK  100  A    between atoms: _286  and  _289
REMARK  101  A    between atoms: _289  and  _290
REMARK  102  A    between atoms: _293  and  _295
REMARK  103  A    between atoms: _295  and  _296
REMARK  104  A    between atoms: _298  and  _300
REMARK  105  A    between atoms: _300  and  _301
REMARK  106  A    between atoms: _300  and  _303
REMARK  107  A    between atoms: _303  and  _304
REMARK  108  A    between atoms: _306  and  _308
REMARK  109  A    between atoms: _308  and  _309
REMARK  110  A    between atoms: _308  and  _311
REMARK  111  A    between atoms: _311  and  _312
REMARK  112  A    between atoms: _315  and  _317
REMARK  113  A    between atoms: _317  and  _318
REMARK  114  A    between atoms: _317  and  _320
REMARK  115  A    between atoms: _320  and  _321
REMARK  116  A    between atoms: _324  and  _326
REMARK  117  A    between atoms: _326  and  _327
REMARK  118  A    between atoms: _326  and  _329
REMARK  119  A    between atoms: _329  and  _330
REMARK  120  A    between atoms: _334  and  _335
REMARK  121  A    between atoms: _341  and  _342
REMARK  122  A    between atoms: _347  and  _349
REMARK  123  A    between atoms: _349  and  _350
REMARK  124  A    between atoms: _349  and  _352
REMARK  125  A    between atoms: _352  and  _353
REMARK  126  A    between atoms: _356  and  _358
REMARK  127  A    between atoms: _358  and  _359
REMARK  128  A    between atoms: _358  and  _361
REMARK  129  A    between atoms: _361  and  _362
REMARK  130  A    between atoms: _365  and  _367
REMARK  131  A    between atoms: _367  and  _368
REMARK  132  A    between atoms: _367  and  _370
REMARK  133  A    between atoms: _372  and  _374
REMARK  134  A    between atoms: _374  and  _375
REMARK  135  A    between atoms: _374  and  _377
REMARK  136  A    between atoms: _380  and  _382
REMARK  137  A    between atoms: _382  and  _383
REMARK  138  A    between atoms: _382  and  _385
REMARK  139  A    between atoms: _385  and  _386
REMARK  140  A    between atoms: _396  and  _398
REMARK  141  A    between atoms: _398  and  _399
REMARK  142  A    between atoms: _398  and  _401
REMARK  143  A    between atoms: _401  and  _402
REMARK  144  A    between atoms: _407  and  _409
REMARK  145  A    between atoms: _409  and  _410
REMARK  146  A    between atoms: _409  and  _412
REMARK  147  A    between atoms: _412  and  _413
REMARK  148  A    between atoms: _413  and  _414
REMARK  149  A    between atoms: _414  and  _415
REMARK                            x       y       z     vdW  Elec       q    Type
REMARK                         _______ _______ _______ _____ _____    ______ ____
ROOT
ATOM      1  CB  ASN A   1      -2.860   2.140   5.298  0.00  0.00    +0.110 C 
ENDROOT
BRANCH   1   2
ATOM      2  CG  ASN A   1      -3.080   1.317   6.554  0.00  0.00    +0.221 C 
ATOM      3  ND2 ASN A   1      -3.712   1.922   7.519  0.00  0.00    -0.329 N 
ATOM      4 HD21 ASN A   1      -3.914   1.417   8.405  0.00  0.00    +0.145 HD
ATOM      5 HD22 ASN A   1      -4.015   2.910   7.403  0.00  0.00    +0.145 HD
ATOM      6  OD1 ASN A   1      -2.732   0.149   6.714  0.00  0.00    -0.275 OA
ENDBRANCH   1   2
BRANCH   1   7
ATOM      7  CA  ASN A   1      -2.423   1.337   4.068  0.00  0.00    +0.142 C 
BRANCH   7   8
ATOM      8  N   ASN A   1      -3.516   0.483   3.620  0.00  0.00    -0.239 NA
ATOM      9  H   ASN A   1      -4.013  -0.120   4.306  0.00  0.00    +0.142 HD
ENDBRANCH   7   8
BRANCH   7  10
ATOM     10  C   ASN A   1      -1.140   0.575   4.386  0.00  0.00    +0.225 C 
ATOM     11  O   ASN A   1      -0.211   1.124   4.986  0.00  0.00    -0.287 OA
ENDBRANCH   7  10
ENDBRANCH   1   7
TORSDOF 4
REMARK  Name = ../refined-set-2016/1bnw/1bnw_pocket.pdb
REMARK  149 active torsions:
REMARK  status: ('A' for Active; 'I' for Inactive)
REMARK    1  A    between atoms: _1  and  _3
REMARK    2  A    between atoms: _3  and  _4
REMARK    3  A    between atoms: _3  and  _6
REMARK    4  A    between atoms: _6  and  _7
REMARK    5  A    between atoms: _17  and  _19
REMARK    6  A    between atoms: _19  and  _20
REMARK    7  A    between atoms: _19  and  _22
REMARK    8  A    between atoms: _22  and  _23
REMARK    9  A    between atoms: _28  and  _29
REMARK   10  A    between atoms: _31  and  _33
REMARK   11  A    between atoms: _33  and  _34
REMARK   12  A    between atoms: _33  and  _36
REMARK   13  A    between atoms: _36  and  _37
REMARK   14  A    between atoms: _40  and  _41
REMARK   15  A    between atoms: _46  and  _48
REMARK   16  A    between atoms: _48  and  _49
REMARK   17  A    between atoms: _48  and  _51
REMARK   18  A    between atoms: _51  and  _52
REMARK   19  A    between atoms: _57  and  _59
REMARK   20  A    between atoms: _59  and  _60
REMARK   21  A    between atoms: _63  and  _65
REMARK   22  A    between atoms: _65  and  _66
REMARK   23  A    between atoms: _65  and  _68
REMARK   24  A    between atoms: _68  and  _69
REMARK   25  A    between atoms: _74  and  _76
REMARK   26  A    between atoms: _76  and  _77
REMARK   27  A    between atoms: _76  and  _79
REMARK   28  A    between atoms: _79  and  _80
REMARK   29  A    between atoms: _83  and  _85
REMARK   30  A    between atoms: _85  and  _86
REMARK   31  A    between atoms: _85  and  _88
REMARK   32  A    between atoms: _88  and  _89
REMARK   33  A    between atoms: _89  and  _90
REMARK   34  A    between atoms: _95  and  _97
REMARK   35  A    between atoms: _97  and  _98
REMARK   36  A    between atoms: _97  and  _100
REMARK   37  A    between atoms: _100  and  _101
REMARK   38  A    between atoms: _107  and  _109
REMARK   39  A    between atoms: _120  and  _123
REMARK   40  A    between atoms: _123  and  _124
REMARK   41  A    between atoms: _132  and  _133
REMARK   42  A    between atoms: _141  and  _143
REMARK   43  A    between atoms: _143  and  _144
REMARK   44  A    between atoms: _143  and  _146
REMARK   45  A    between atoms: _146  and  _147
REMARK   46  A    between atoms: _147  and  _148
REMARK   47  A    between atoms: _151  and  _153
REMARK   48  A    between atoms: _153  and  _154
REMARK   49  A    between atoms: _153  and  _156
REMARK   50  A    between atoms: _156  and  _157
REMARK   51  A    between atoms: _162  and  _164
REMARK   52  A    between atoms: _164  and  _165
REMARK   53  A    between atoms: _164  and  _167
REMARK   54  A    between atoms: _167  and  _168
REMARK   55  A    between atoms: _168  and  _169
REMARK   56  A    between atoms: _172  and  _174
REMARK   57  A    between atoms: _174  and  _175
REMARK   58  A    between atoms: _174  and  _177
REMARK   59  A    between atoms: _177  and  _178
REMARK   60  A    between atoms: _181  and  _183
REMARK   61  A    between atoms: _183  and  _184
REMARK   62  A    between atoms: _183  and  _186
REMARK   63  A    between atoms: _186  and  _187
REMARK   64  A    between atoms: _188  and  ZN_424
REMARK   65  A    between atoms: _192  and  _194
REMARK   66  A    between atoms: _194  and  _195
REMARK   67  A    between atoms: _194  and  _197
REMARK   68  A    between atoms: _197  and  _198
REMARK   69  A    between atoms: _201  and  _203
REMARK   70  A    between atoms: _203  and  _204
REMARK   71  A    between atoms: _203  and  _206
REMARK   72  A    between atoms: _209  and  _211
REMARK   73  A    between atoms: _211  and  _212
REMARK   74  A    between atoms: _211  and  _214
REMARK   75  A    between atoms: _214  and  _215
REMARK   76  A    between atoms: _220  and  _222
REMARK   77  A    between atoms: _222  and  _223
REMARK   78  A    between atoms: _222  and  _225
REMARK   79  A    between atoms: _225  and  _226
REMARK   80  A    between atoms: _236  and  _238
REMARK   81  A    between atoms: _238  and  _239
REMARK   82  A    between atoms: _238  and  _241
REMARK   83  A    between atoms: _241  and  _242
REMARK   84  A    between atoms: _248  and  _250
REMARK   85  A    between atoms: _250  and  _251
REMARK   86  A    between atoms: _253  and  _255
REMARK   87  A    between atoms: _255  and  _256
REMARK   88  A    between atoms: _255  and  _258
REMARK   89  A    between atoms: _261  and  _263
REMARK   90  A    between atoms: _263  and  _264
REMARK   91  A    between atoms: _263  and  _266
REMARK   92  A    between atoms: _266  and  _267
REMARK   93  A    between atoms: _270  and  _272
REMARK   94  A    between atoms: _272  and  _273
REMARK   95  A    between atoms: _276  and  _278
REMARK   96  A    between atoms: _278  and  _279
REMARK   97  A    between atoms: _278  and  _281
REMARK   98  A    between atoms: _284  and  _286
REMARK   99  A    between atoms: _286  and  _287
REMARK  100  A    between atoms: _286  and  _289
REMARK  101  A    between atoms: _289  and  _290
REMARK  102  A    between atoms: _293  and  _295
REMARK  103  A    between atoms: _295  and  _296
REMARK  104  A    between atoms: _298  and  _300
REMARK  105  A    between atoms: _300  and  _301
REMARK  106  A    between atoms: _300  and  _303
REMARK  107  A    between atoms: _303  and  _304
REMARK  108  A    between atoms: _306  and  _308
REMARK  109  A    between atoms: _308  and  _309
REMARK  110  A    between atoms: _308  and  _311
REMARK  111  A    between atoms: _311  and  _312
REMARK  112  A    between atoms: _315  and  _317
REMARK  113  A    between atoms: _317  and  _318
REMARK  114  A    between atoms: _317  and  _320
REMARK  115  A    between atoms: _320  and  _321
REMARK  116  A    between atoms: _324  and  _326
REMARK  117  A    between atoms: _326  and  _327
REMARK  118  A    between atoms: _326  and  _329
REMARK  119  A    between atoms: _329  and  _330
REMARK  120  A    between atoms: _334  and  _335
REMARK  121  A    between atoms: _341  and  _342
REMARK  122  A    between atoms: _347  and  _349
REMARK  123  A    between atoms: _349  and  _350
REMARK  124  A    between atoms: _349  and  _352
REMARK  125  A    between atoms: _352  and  _353
REMARK  126  A    between atoms: _356  and  _358
REMARK  127  A    between atoms: _358  and  _359
REMARK  128  A    between atoms: _358  and  _361
REMARK  129  A    between atoms: _361  and  _362
REMARK  130  A    between atoms: _365  and  _367
REMARK  131  A    between atoms: _367  and  _368
REMARK  132  A    between atoms: _367  and  _370
REMARK  133  A    between atoms: _372  and  _374
REMARK  134  A    between atoms: _374  and  _375
REMARK  135  A    between atoms: _374  and  _377
REMARK  136  A    between atoms: _380  and  _382
REMARK  137  A    between atoms: _382  and  _383
REMARK  138  A    between atoms: _382  and  _385
REMARK  139  A    between atoms: _385  and  _386
REMARK  140  A    between atoms: _396  and  _398
REMARK  141  A    between atoms: _398  and  _399
REMARK  142  A    between atoms: _398  and  _401
REMARK  143  A    between atoms: _401  and  _402
REMARK  144  A    between atoms: _407  and  _409
REMARK  145  A    between atoms: _409  and  _410
REMARK  146  A    between atoms: _409  and  _412
REMARK  147  A    between atoms: _412  and  _413
REMARK  148  A    between atoms: _413  and  _414
REMARK  149  A    between atoms: _414  and  _415
REMARK                            x       y       z     vdW  Elec       q    Type
REMARK                         _______ _______ _______ _____ _____    ______ ____
ROOT
ATOM      1  CA  ALA A   1      -4.706  -3.102   7.304  0.00  0.00    +0.133 C 
ATOM      2  CB  ALA A   1      -5.336  -2.699   8.651  0.00  0.00    +0.027 C 
ENDROOT
BRANCH   1   3
ATOM      3  N   ALA A   1      -3.321  -2.673   7.229  0.00  0.00    -0.239 NA
ATOM      4  H   ALA A   1      -3.108  -1.837   6.648  0.00  0.00    +0.142 HD
ENDBRANCH   1   3
BRANCH   1   5
ATOM      5  C   ALA A   1      -5.432  -2.331   6.199  0.00  0.00    +0.224 C 
ATOM      6  O   ALA A   1      -4.808  -1.542   5.471  0.00  0.00    -0.287 OA
ENDBRANCH   1   5
TORSDOF 2
REMARK  Name = ../refined-set-2016/1bnw/1bnw_pocket.pdb
REMARK  149 active torsions:
REMARK  status: ('A' for Active; 'I' for Inactive)
REMARK    1  A    between atoms: _1  and  _3
REMARK    2  A    between atoms: _3  and  _4
REMARK    3  A    between atoms: _3  and  _6
REMARK    4  A    between atoms: _6  and  _7
REMARK    5  A    between atoms: _17  and  _19
REMARK    6  A    between atoms: _19  and  _20
REMARK    7  A    between atoms: _19  and  _22
REMARK    8  A    between atoms: _22  and  _23
REMARK    9  A    between atoms: _28  and  _29
REMARK   10  A    between atoms: _31  and  _33
REMARK   11  A    between atoms: _33  and  _34
REMARK   12  A    between atoms: _33  and  _36
REMARK   13  A    between atoms: _36  and  _37
REMARK   14  A    between atoms: _40  and  _41
REMARK   15  A    between atoms: _46  and  _48
REMARK   16  A    between atoms: _48  and  _49
REMARK   17  A    between atoms: _48  and  _51
REMARK   18  A    between atoms: _51  and  _52
REMARK   19  A    between atoms: _57  and  _59
REMARK   20  A    between atoms: _59  and  _60
REMARK   21  A    between atoms: _63  and  _65
REMARK   22  A    between atoms: _65  and  _66
REMARK   23  A    between atoms: _65  and  _68
REMARK   24  A    between atoms: _68  and  _69
REMARK   25  A    between atoms: _74  and  _76
REMARK   26  A    between atoms: _76  and  _77
REMARK   27  A    between atoms: _76  and  _79
REMARK   28  A    between atoms: _79  and  _80
REMARK   29  A    between atoms: _83  and  _85
REMARK   30  A    between atoms: _85  and  _86
REMARK   31  A    between atoms: _85  and  _88
REMARK   32  A    between atoms: _88  and  _89
REMARK   33  A    between atoms: _89  and  _90
REMARK   34  A    between atoms: _95  and  _97
REMARK   35  A    between atoms: _97  and  _98
REMARK   36  A    between atoms: _97  and  _100
REMARK   37  A    between atoms: _100  and  _101
REMARK   38  A    between atoms: _107  and  _109
REMARK   39  A    between atoms: _120  and  _123
REMARK   40  A    between atoms: _123  and  _124
REMARK   41  A    between atoms: _132  and  _133
REMARK   42  A    between atoms: _141  and  _143
REMARK   43  A    between atoms: _143  and  _144
REMARK   44  A    between atoms: _143  and  _146
REMARK   45  A    between atoms: _146  and  _147
REMARK   46  A    between atoms: _147  and  _148
REMARK   47  A    between atoms: _151  and  _153
REMARK   48  A    between atoms: _153  and  _154
REMARK   49  A    between atoms: _153  and  _156
REMARK   50  A    between atoms: _156  and  _157
REMARK   51  A    between atoms: _162  and  _164
REMARK   52  A    between atoms: _164  and  _165
REMARK   53  A    between atoms: _164  and  _167
REMARK   54  A    between atoms: _167  and  _168
REMARK   55  A    between atoms: _168  and  _169
REMARK   56  A    between atoms: _172  and  _174
REMARK   57  A    between atoms: _174  and  _175
REMARK   58  A    between atoms: _174  and  _177
REMARK   59  A    between atoms: _177  and  _178
REMARK   60  A    between atoms: _181  and  _183
REMARK   61  A    between atoms: _183  and  _184
REMARK   62  A    between atoms: _183  and  _186
REMARK   63  A    between atoms: _186  and  _187
REMARK   64  A    between atoms: _188  and  ZN_424
REMARK   65  A    between atoms: _192  and  _194
REMARK   66  A    between atoms: _194  and  _195
REMARK   67  A    between atoms: _194  and  _197
REMARK   68  A    between atoms: _197  and  _198
REMARK   69  A    between atoms: _201  and  _203
REMARK   70  A    between atoms: _203  and  _204
REMARK   71  A    between atoms: _203  and  _206
REMARK   72  A    between atoms: _209  and  _211
REMARK   73  A    between atoms: _211  and  _212
REMARK   74  A    between atoms: _211  and  _214
REMARK   75  A    between atoms: _214  and  _215
REMARK   76  A    between atoms: _220  and  _222
REMARK   77  A    between atoms: _222  and  _223
REMARK   78  A    between atoms: _222  and  _225
REMARK   79  A    between atoms: _225  and  _226
REMARK   80  A    between atoms: _236  and  _238
REMARK   81  A    between atoms: _238  and  _239
REMARK   82  A    between atoms: _238  and  _241
REMARK   83  A    between atoms: _241  and  _242
REMARK   84  A    between atoms: _248  and  _250
REMARK   85  A    between atoms: _250  and  _251
REMARK   86  A    between atoms: _253  and  _255
REMARK   87  A    between atoms: _255  and  _256
REMARK   88  A    between atoms: _255  and  _258
REMARK   89  A    between atoms: _261  and  _263
REMARK   90  A    between atoms: _263  and  _264
REMARK   91  A    between atoms: _263  and  _266
REMARK   92  A    between atoms: _266  and  _267
REMARK   93  A    between atoms: _270  and  _272
REMARK   94  A    between atoms: _272  and  _273
REMARK   95  A    between atoms: _276  and  _278
REMARK   96  A    between atoms: _278  and  _279
REMARK   97  A    between atoms: _278  and  _281
REMARK   98  A    between atoms: _284  and  _286
REMARK   99  A    between atoms: _286  and  _287
REMARK  100  A    between atoms: _286  and  _289
REMARK  101  A    between atoms: _289  and  _290
REMARK  102  A    between atoms: _293  and  _295
REMARK  103  A    between atoms: _295  and  _296
REMARK  104  A    between atoms: _298  and  _300
REMARK  105  A    between atoms: _300  and  _301
REMARK  106  A    between atoms: _300  and  _303
REMARK  107  A    between atoms: _303  and  _304
REMARK  108  A    between atoms: _306  and  _308
REMARK  109  A    between atoms: _308  and  _309
REMARK  110  A    between atoms: _308  and  _311
REMARK  111  A    between atoms: _311  and  _312
REMARK  112  A    between atoms: _315  and  _317
REMARK  113  A    between atoms: _317  and  _318
REMARK  114  A    between atoms: _317  and  _320
REMARK  115  A    between atoms: _320  and  _321
REMARK  116  A    between atoms: _324  and  _326
REMARK  117  A    between atoms: _326  and  _327
REMARK  118  A    between atoms: _326  and  _329
REMARK  119  A    between atoms: _329  and  _330
REMARK  120  A    between atoms: _334  and  _335
REMARK  121  A    between atoms: _341  and  _342
REMARK  122  A    between atoms: _347  and  _349
REMARK  123  A    between atoms: _349  and  _350
REMARK  124  A    between atoms: _349  and  _352
REMARK  125  A    between atoms: _352  and  _353
REMARK  126  A    between atoms: _356  and  _358
REMARK  127  A    between atoms: _358  and  _359
REMARK  128  A    between atoms: _358  and  _361
REMARK  129  A    between atoms: _361  and  _362
REMARK  130  A    between atoms: _365  and  _367
REMARK  131  A    between atoms: _367  and  _368
REMARK  132  A    between atoms: _367  and  _370
REMARK  133  A    between atoms: _372  and  _374
REMARK  134  A    between atoms: _374  and  _375
REMARK  135  A    between atoms: _374  and  _377
REMARK  136  A    between atoms: _380  and  _382
REMARK  137  A    between atoms: _382  and  _383
REMARK  138  A    between atoms: _382  and  _385
REMARK  139  A    between atoms: _385  and  _386
REMARK  140  A    between atoms: _396  and  _398
REMARK  141  A    between atoms: _398  and  _399
REMARK  142  A    between atoms: _398  and  _401
REMARK  143  A    between atoms: _401  and  _402
REMARK  144  A    between atoms: _407  and  _409
REMARK  145  A    between atoms: _409  and  _410
REMARK  146  A    between atoms: _409  and  _412
REMARK  147  A    between atoms: _412  and  _413
REMARK  148  A    between atoms: _413  and  _414
REMARK  149  A    between atoms: _414  and  _415
REMARK                            x       y       z     vdW  Elec       q    Type
REMARK                         _______ _______ _______ _____ _____    ______ ____
ROOT
ATOM      1  CB  ASN A   1      -8.610   2.437   7.163  0.00  0.00    +0.110 C 
ENDROOT
BRANCH   1   2
ATOM      2  CG  ASN A   1      -7.370   2.177   7.998  0.00  0.00    +0.221 C 
ATOM      3  ND2 ASN A   1      -7.077   1.017   8.546  0.00  0.00    -0.329 N 
ATOM      4 HD21 ASN A   1      -6.215   0.915   9.119  0.00  0.00    +0.145 HD
ATOM      5 HD22 ASN A   1      -7.707   0.202   8.406  0.00  0.00    +0.145 HD
ATOM      6  OD1 ASN A   1      -6.588   3.101   8.199  0.00  0.00    -0.275 OA
ENDBRANCH   1   2
BRANCH   1   7
ATOM      7  CA  ASN A   1      -9.407   1.250   6.669  0.00  0.00    +0.142 C 
BRANCH   7   8
ATOM      8  N   ASN A   1      -8.612   0.390   5.834  0.00  0.00    -0.239 NA
ATOM      9  H   ASN A   1      -8.206   0.757   4.950  0.00  0.00    +0.142 HD
ENDBRANCH   7   8
BRANCH   7  10
ATOM     10  C   ASN A   1     -10.539   1.791   5.836  0.00  0.00    +0.225 C 
ATOM     11  O   ASN A   1     -10.308   2.098   4.659  0.00  0.00    -0.287 OA
ENDBRANCH   7  10
ENDBRANCH   1   7
TORSDOF 4
REMARK  Name = ../refined-set-2016/1bnw/1bnw_pocket.pdb
REMARK  149 active torsions:
REMARK  status: ('A' for Active; 'I' for Inactive)
REMARK    1  A    between atoms: _1  and  _3
REMARK    2  A    between atoms: _3  and  _4
REMARK    3  A    between atoms: _3  and  _6
REMARK    4  A    between atoms: _6  and  _7
REMARK    5  A    between atoms: _17  and  _19
REMARK    6  A    between atoms: _19  and  _20
REMARK    7  A    between atoms: _19  and  _22
REMARK    8  A    between atoms: _22  and  _23
REMARK    9  A    between atoms: _28  and  _29
REMARK   10  A    between atoms: _31  and  _33
REMARK   11  A    between atoms: _33  and  _34
REMARK   12  A    between atoms: _33  and  _36
REMARK   13  A    between atoms: _36  and  _37
REMARK   14  A    between atoms: _40  and  _41
REMARK   15  A    between atoms: _46  and  _48
REMARK   16  A    between atoms: _48  and  _49
REMARK   17  A    between atoms: _48  and  _51
REMARK   18  A    between atoms: _51  and  _52
REMARK   19  A    between atoms: _57  and  _59
REMARK   20  A    between atoms: _59  and  _60
REMARK   21  A    between atoms: _63  and  _65
REMARK   22  A    between atoms: _65  and  _66
REMARK   23  A    between atoms: _65  and  _68
REMARK   24  A    between atoms: _68  and  _69
REMARK   25  A    between atoms: _74  and  _76
REMARK   26  A    between atoms: _76  and  _77
REMARK   27  A    between atoms: _76  and  _79
REMARK   28  A    between atoms: _79  and  _80
REMARK   29  A    between atoms: _83  and  _85
REMARK   30  A    between atoms: _85  and  _86
REMARK   31  A    between atoms: _85  and  _88
REMARK   32  A    between atoms: _88  and  _89
REMARK   33  A    between atoms: _89  and  _90
REMARK   34  A    between atoms: _95  and  _97
REMARK   35  A    between atoms: _97  and  _98
REMARK   36  A    between atoms: _97  and  _100
REMARK   37  A    between atoms: _100  and  _101
REMARK   38  A    between atoms: _107  and  _109
REMARK   39  A    between atoms: _120  and  _123
REMARK   40  A    between atoms: _123  and  _124
REMARK   41  A    between atoms: _132  and  _133
REMARK   42  A    between atoms: _141  and  _143
REMARK   43  A    between atoms: _143  and  _144
REMARK   44  A    between atoms: _143  and  _146
REMARK   45  A    between atoms: _146  and  _147
REMARK   46  A    between atoms: _147  and  _148
REMARK   47  A    between atoms: _151  and  _153
REMARK   48  A    between atoms: _153  and  _154
REMARK   49  A    between atoms: _153  and  _156
REMARK   50  A    between atoms: _156  and  _157
REMARK   51  A    between atoms: _162  and  _164
REMARK   52  A    between atoms: _164  and  _165
REMARK   53  A    between atoms: _164  and  _167
REMARK   54  A    between atoms: _167  and  _168
REMARK   55  A    between atoms: _168  and  _169
REMARK   56  A    between atoms: _172  and  _174
REMARK   57  A    between atoms: _174  and  _175
REMARK   58  A    between atoms: _174  and  _177
REMARK   59  A    between atoms: _177  and  _178
REMARK   60  A    between atoms: _181  and  _183
REMARK   61  A    between atoms: _183  and  _184
REMARK   62  A    between atoms: _183  and  _186
REMARK   63  A    between atoms: _186  and  _187
REMARK   64  A    between atoms: _188  and  ZN_424
REMARK   65  A    between atoms: _192  and  _194
REMARK   66  A    between atoms: _194  and  _195
REMARK   67  A    between atoms: _194  and  _197
REMARK   68  A    between atoms: _197  and  _198
REMARK   69  A    between atoms: _201  and  _203
REMARK   70  A    between atoms: _203  and  _204
REMARK   71  A    between atoms: _203  and  _206
REMARK   72  A    between atoms: _209  and  _211
REMARK   73  A    between atoms: _211  and  _212
REMARK   74  A    between atoms: _211  and  _214
REMARK   75  A    between atoms: _214  and  _215
REMARK   76  A    between atoms: _220  and  _222
REMARK   77  A    between atoms: _222  and  _223
REMARK   78  A    between atoms: _222  and  _225
REMARK   79  A    between atoms: _225  and  _226
REMARK   80  A    between atoms: _236  and  _238
REMARK   81  A    between atoms: _238  and  _239
REMARK   82  A    between atoms: _238  and  _241
REMARK   83  A    between atoms: _241  and  _242
REMARK   84  A    between atoms: _248  and  _250
REMARK   85  A    between atoms: _250  and  _251
REMARK   86  A    between atoms: _253  and  _255
REMARK   87  A    between atoms: _255  and  _256
REMARK   88  A    between atoms: _255  and  _258
REMARK   89  A    between atoms: _261  and  _263
REMARK   90  A    between atoms: _263  and  _264
REMARK   91  A    between atoms: _263  and  _266
REMARK   92  A    between atoms: _266  and  _267
REMARK   93  A    between atoms: _270  and  _272
REMARK   94  A    between atoms: _272  and  _273
REMARK   95  A    between atoms: _276  and  _278
REMARK   96  A    between atoms: _278  and  _279
REMARK   97  A    between atoms: _278  and  _281
REMARK   98  A    between atoms: _284  and  _286
REMARK   99  A    between atoms: _286  and  _287
REMARK  100  A    between atoms: _286  and  _289
REMARK  101  A    between atoms: _289  and  _290
REMARK  102  A    between atoms: _293  and  _295
REMARK  103  A    between atoms: _295  and  _296
REMARK  104  A    between atoms: _298  and  _300
REMARK  105  A    between atoms: _300  and  _301
REMARK  106  A    between atoms: _300  and  _303
REMARK  107  A    between atoms: _303  and  _304
REMARK  108  A    between atoms: _306  and  _308
REMARK  109  A    between atoms: _308  and  _309
REMARK  110  A    between atoms: _308  and  _311
REMARK  111  A    between atoms: _311  and  _312
REMARK  112  A    between atoms: _315  and  _317
REMARK  113  A    between atoms: _317  and  _318
REMARK  114  A    between atoms: _317  and  _320
REMARK  115  A    between atoms: _320  and  _321
REMARK  116  A    between atoms: _324  and  _326
REMARK  117  A    between atoms: _326  and  _327
REMARK  118  A    between atoms: _326  and  _329
REMARK  119  A    between atoms: _329  and  _330
REMARK  120  A    between atoms: _334  and  _335
REMARK  121  A    between atoms: _341  and  _342
REMARK  122  A    between atoms: _347  and  _349
REMARK  123  A    between atoms: _349  and  _350
REMARK  124  A    between atoms: _349  and  _352
REMARK  125  A    between atoms: _352  and  _353
REMARK  126  A    between atoms: _356  and  _358
REMARK  127  A    between atoms: _358  and  _359
REMARK  128  A    between atoms: _358  and  _361
REMARK  129  A    between atoms: _361  and  _362
REMARK  130  A    between atoms: _365  and  _367
REMARK  131  A    between atoms: _367  and  _368
REMARK  132  A    between atoms: _367  and  _370
REMARK  133  A    between atoms: _372  and  _374
REMARK  134  A    between atoms: _374  and  _375
REMARK  135  A    between atoms: _374  and  _377
REMARK  136  A    between atoms: _380  and  _382
REMARK  137  A    between atoms: _382  and  _383
REMARK  138  A    between atoms: _382  and  _385
REMARK  139  A    between atoms: _385  and  _386
REMARK  140  A    between atoms: _396  and  _398
REMARK  141  A    between atoms: _398  and  _399
REMARK  142  A    between atoms: _398  and  _401
REMARK  143  A    between atoms: _401  and  _402
REMARK  144  A    between atoms: _407  and  _409
REMARK  145  A    between atoms: _409  and  _410
REMARK  146  A    between atoms: _409  and  _412
REMARK  147  A    between atoms: _412  and  _413
REMARK  148  A    between atoms: _413  and  _414
REMARK  149  A    between atoms: _414  and  _415
REMARK                            x       y       z     vdW  Elec       q    Type
REMARK                         _______ _______ _______ _____ _____    ______ ____
ROOT
ATOM      1  N   UNK A   6      -8.287  -2.229  16.590  0.00  0.00    +0.000 N 
ATOM      2  C   UNK A   6      -7.910  -3.070  17.534  0.00  0.00    +0.000 A 
ATOM      3  N   UNK A   6      -8.965  -3.362  18.241  0.00  0.00    +0.000 NA
ATOM      4  C   UNK A   6     -10.022  -2.740  17.787  0.00  0.00    +0.000 A 
ATOM      5  C   UNK A   6      -9.589  -1.995  16.727  0.00  0.00    +0.000 A 
ENDROOT
BRANCH   1  19
ATOM      6  C   UNK A   4     -10.204  -1.306  10.434  0.00  0.00    +0.000 C 
ATOM      7  C   UNK A   4     -10.316  -2.624  11.159  0.00  0.00    +0.000 C 
ATOM      8  O   UNK A   4     -11.012  -2.728  12.165  0.00  0.00    +0.000 OA
ATOM      9  N   VAL A   5      -9.632  -3.654  10.709  0.00  0.00    +0.000 N 
ATOM     10  CA  VAL A   5      -9.710  -4.949  11.347  0.00  0.00    +0.000 C 
ATOM     11  C   VAL A   5      -8.278  -5.419  11.508  0.00  0.00    +0.000 C 
ATOM     12  N   UNK A   6      -8.150  -6.394  12.387  0.00  0.00    +0.000 N 
ATOM     13  H   UNK A   6      -8.991  -6.660  12.938  0.00  0.00    +0.000 HD
ATOM     14  C   UNK A   6      -6.917  -7.126  12.643  0.00  0.00    +0.000 C 
ATOM     15  C   UNK A   6      -6.437  -6.824  14.074  0.00  0.00    +0.000 C 
ATOM     16  C   UNK A   6      -6.003  -5.372  14.279  0.00  0.00    +0.000 A 
ATOM     17  C   UNK A   6      -6.824  -4.328  14.641  0.00  0.00    +0.000 A 
ATOM     18  N   UNK A   6      -6.054  -3.269  14.744  0.00  0.00    +0.000 N 
ATOM     19 ZN   UNK A   6      -6.844  -1.554  15.425  0.00  0.00    +0.000 Zn
ATOM     20  N   UNK A   4      -7.647  -0.354  13.894  0.00  0.00    +0.000 N 
ATOM     21  C   UNK A   4      -8.041   0.861  13.599  0.00  0.00    +0.000 A 
ATOM     22  N   UNK A   4      -8.469   0.850  12.372  0.00  0.00    +0.000 NA
ATOM     23  C   UNK A   4      -8.340  -0.383  11.902  0.00  0.00    +0.000 A 
ATOM     24  C   UNK A   4      -7.808  -1.159  12.880  0.00  0.00    +0.000 A 
ATOM     25  C   UNK A   6      -4.822  -3.593  14.459  0.00  0.00    +0.000 A 
ATOM     26  N   UNK A   6      -4.776  -4.877  14.169  0.00  0.00    +0.000 NA
ATOM     27  O   VAL A   5      -7.343  -4.925  10.876  0.00  0.00    +0.000 OA
ATOM     28  H   VAL A   5      -9.022  -3.534   9.876  0.00  0.00    +0.000 HD
ATOM     29  C   UNK A   4      -8.748  -0.863  10.529  0.00  0.00    +0.000 C 
BRANCH   6  31
ATOM     30  C   UNK A   3     -11.784   0.588  10.363  0.00  0.00    +0.000 C 
ATOM     31  N   UNK A   4     -11.121  -0.346  11.044  0.00  0.00    +0.000 N 
ATOM     32  H   UNK A   4     -11.265  -0.395  12.073  0.00  0.00    +0.000 HD
ATOM     33  O   UNK A   3     -11.572   0.806   9.150  0.00  0.00    +0.000 OA
BRANCH  30  34
ATOM     34  C   UNK A   3     -12.726   1.467  11.164  0.00  0.00    +0.000 C 
BRANCH  34  37
ATOM     35  C   LEU A   2     -12.650   3.876  11.199  0.00  0.00    +0.000 C 
ATOM     36  O   LEU A   2     -12.750   3.900  12.430  0.00  0.00    +0.000 OA
ATOM     37  N   UNK A   3     -12.749   2.745  10.499  0.00  0.00    +0.000 N 
ATOM     38  H   UNK A   3     -12.844   2.786   9.464  0.00  0.00    +0.000 HD
BRANCH  35  39
ATOM     39  CA  LEU A   2     -12.483   5.200  10.493  0.00  0.00    +0.000 C 
BRANCH  39  41
ATOM     40  C   GLU A   1     -12.996   7.566  10.873  0.00  0.00    +0.000 C 
ATOM     41  N   LEU A   2     -12.811   6.327  11.356  0.00  0.00    +0.000 N 
ATOM     42  H   LEU A   2     -12.905   6.167  12.379  0.00  0.00    +0.000 HD
ATOM     43  O   GLU A   1     -12.982   7.742   9.661  0.00  0.00    +0.000 OA
BRANCH  40  44
ATOM     44  CA  GLU A   1     -13.303   8.786  11.730  0.00  0.00    +0.000 C 
BRANCH  44  45
ATOM     45  N   GLU A   1     -14.120   8.360  12.832  0.00  0.00    +0.000 NA
ATOM     46  H   GLU A   1     -13.737   7.715  13.553  0.00  0.00    +0.000 HD
ENDBRANCH  44  45
BRANCH  44  47
ATOM     47  CB  GLU A   1     -12.044   9.483  12.303  0.00  0.00    +0.000 C 
ATOM     48  CG2 GLU A   1     -11.320   8.637  13.332  0.00  0.00    +0.000 C 
BRANCH  47  49
ATOM     49  CG1 GLU A   1     -11.128   9.806  11.166  0.00  0.00    +0.000 C 
ATOM     50  CD1 GLU A   1     -10.027  10.780  11.616  0.00  0.00    +0.000 C 
ENDBRANCH  47  49
ENDBRANCH  44  47
ENDBRANCH  40  44
ENDBRANCH  39  41
BRANCH  39  51
ATOM     51  CB  LEU A   2     -11.027   5.319   9.980  0.00  0.00    +0.000 C 
BRANCH  51  52
ATOM     52  CG  LEU A   2      -9.857   5.338  10.952  0.00  0.00    +0.000 C 
BRANCH  52  53
ATOM     53  CD  LEU A   2      -9.148   4.003  11.036  0.00  0.00    +0.000 C 
ATOM     54  NE2 LEU A   2      -7.881   3.886  11.364  0.00  0.00    +0.000 N 
ATOM     55 HE21 LEU A   2      -7.321   4.734  11.585  0.00  0.00    +0.000 HD
ATOM     56 HE22 LEU A   2      -7.439   2.946  11.403  0.00  0.00    +0.000 HD
ATOM     57  OE1 LEU A   2      -9.732   2.967  10.793  0.00  0.00    +0.000 OA
ENDBRANCH  52  53
ENDBRANCH  51  52
ENDBRANCH  39  51
ENDBRANCH  35  39
ENDBRANCH  34  37
BRANCH  34  58
ATOM     58  C   UNK A   3     -14.166   0.894  11.272  0.00  0.00    +0.000 C 
BRANCH  58  59
ATOM     59  C   UNK A   3     -14.898   0.294  10.072  0.00  0.00    +0.000 A 
ATOM     60  C   UNK A   3     -16.019   0.952   9.580  0.00  0.00    +0.000 A 
ATOM     61  C   UNK A   3     -16.718   0.422   8.493  0.00  0.00    +0.000 A 
ATOM     62  C   UNK A   3     -16.294  -0.769   7.896  0.00  0.00    +0.000 A 
ATOM     63  C   UNK A   3     -15.174  -1.430   8.387  0.00  0.00    +0.000 A 
ATOM     64  C   UNK A   3     -14.480  -0.905   9.470  0.00  0.00    +0.000 A 
ENDBRANCH  58  59
ENDBRANCH  34  58
ENDBRANCH  30  34
ENDBRANCH   6  31
BRANCH  14  65
ATOM     65  C   UNK A   6      -7.384  -8.573  12.492  0.00  0.00    +0.000 C 
ATOM     66  O   UNK A   6      -8.477  -8.909  12.983  0.00  0.00    +0.000 OA
ENDBRANCH  14  65
BRANCH  10  67
ATOM     67  CB  VAL A   5     -10.468  -6.016  10.497  0.00  0.00    +0.000 C 
BRANCH  67  68
ATOM     68  CG  VAL A   5     -11.930  -5.733  10.155  0.00  0.00    +0.000 A 
ATOM     69  CD2 VAL A   5     -12.942  -6.455  10.791  0.00  0.00    +0.000 A 
ATOM     70  CE2 VAL A   5     -14.282  -6.219  10.443  0.00  0.00    +0.000 A 
ATOM     71  CZ  VAL A   5     -14.621  -5.274   9.479  0.00  0.00    +0.000 A 
ATOM     72  CE1 VAL A   5     -13.616  -4.551   8.849  0.00  0.00    +0.000 A 
ATOM     73  CD1 VAL A   5     -12.272  -4.777   9.183  0.00  0.00    +0.000 A 
ENDBRANCH  67  68
ENDBRANCH  10  67
ENDBRANCH   1  19
BRANCH   5  74
ATOM     74  C   UNK A   6     -10.429  -1.007  15.916  0.00  0.00    +0.000 C 
BRANCH  74  75
ATOM     75  C   UNK A   6     -11.898  -1.337  15.705  0.00  0.00    +0.000 C 
BRANCH  75  76
ATOM     76  N   UNK A   6     -12.018  -2.521  14.897  0.00  0.00    +0.000 N 
ATOM     77  C   LEU A   2     -12.729  -3.559  15.338  0.00  0.00    +0.000 C 
ATOM     78  O   LEU A   2     -13.246  -3.572  16.461  0.00  0.00    +0.000 OA
ATOM     79  H   UNK A   6     -11.550  -2.567  13.969  0.00  0.00    +0.000 HD
BRANCH  77  80
ATOM     80  CA  LEU A   2     -12.973  -4.754  14.446  0.00  0.00    +0.000 C 
BRANCH  80  81
ATOM     81  N   LEU A   2     -12.589  -5.969  15.085  0.00  0.00    +0.000 N 
ATOM     82  H   LEU A   2     -13.290  -6.441  15.691  0.00  0.00    +0.000 HD
ATOM     83  C   GLU A   1     -11.404  -6.536  14.960  0.00  0.00    +0.000 C 
ATOM     84  O   GLU A   1     -10.515  -6.106  14.241  0.00  0.00    +0.000 OA
BRANCH  83  85
ATOM     85  CA  GLU A   1     -11.207  -7.829  15.731  0.00  0.00    +0.000 C 
BRANCH  85  86
ATOM     86  N   GLU A   1     -10.667  -8.839  14.848  0.00  0.00    +0.000 NA
ATOM     87  H   GLU A   1      -9.980  -8.562  14.118  0.00  0.00    +0.000 HD
ENDBRANCH  85  86
BRANCH  85  88
ATOM     88  CB  GLU A   1     -10.262  -7.605  16.889  0.00  0.00    +0.000 C 
BRANCH  88  89
ATOM     89  CG  GLU A   1     -10.808  -6.645  17.964  0.00  0.00    +0.000 C 
BRANCH  89  90
ATOM     90  CD  GLU A   1      -9.959  -6.574  19.228  0.00  0.00    +0.000 C 
ATOM     91  OE2 GLU A   1      -9.862  -5.504  19.823  0.00  0.00    +0.000 OA
ATOM     92  OE1 GLU A   1      -9.389  -7.587  19.628  0.00  0.00    +0.000 OA
ENDBRANCH  89  90
ENDBRANCH  88  89
ENDBRANCH  85  88
ENDBRANCH  83  85
ENDBRANCH  80  81
BRANCH  80  93
ATOM     93  CB  LEU A   2     -14.452  -4.856  14.106  0.00  0.00    +0.000 C 
BRANCH  93  94
ATOM     94  CG  LEU A   2     -15.255  -3.622  13.638  0.00  0.00    +0.000 C 
ATOM     95  CD2 LEU A   2     -16.681  -4.052  13.337  0.00  0.00    +0.000 C 
ATOM     96  CD1 LEU A   2     -14.642  -3.017  12.384  0.00  0.00    +0.000 C 
ENDBRANCH  93  94
ENDBRANCH  80  93
ENDBRANCH  77  80
ENDBRANCH  75  76
BRANCH  75  97
ATOM     97  C   UNK A   6     -12.601  -0.145  15.063  0.00  0.00    +0.000 C 
ATOM     98  N   UNK A   4     -13.569   0.486  15.735  0.00  0.00    +0.000 N 
ATOM     99  H   UNK A   4     -13.864   0.105  16.656  0.00  0.00    +0.000 HD
ATOM    100  O   UNK A   6     -12.277   0.233  13.936  0.00  0.00    +0.000 OA
BRANCH  98 101
ATOM    101  C   UNK A   4     -14.230   1.686  15.233  0.00  0.00    +0.000 C 
BRANCH 101 102
ATOM    102  C   UNK A   4     -13.607   2.862  15.971  0.00  0.00    +0.000 C 
ATOM    103  O   UNK A   4     -13.792   3.041  17.186  0.00  0.00    +0.000 OA
ATOM    104  N   VAL A   5     -12.821   3.681  15.288  0.00  0.00    +0.000 N 
ATOM    105  H   VAL A   5     -12.791   3.606  14.251  0.00  0.00    +0.000 HD
BRANCH 104 106
ATOM    106  CA  VAL A   5     -12.002   4.678  15.946  0.00  0.00    +0.000 C 
BRANCH 106 107
ATOM    107  C   VAL A   5     -12.687   6.029  16.005  0.00  0.00    +0.000 C 
ATOM    108  N   UNK A   6     -12.681   6.633  17.207  0.00  0.00    +0.000 N 
ATOM    109  H   UNK A   6     -12.173   6.179  17.993  0.00  0.00    +0.000 HD
ATOM    110  O   VAL A   5     -13.257   6.486  14.997  0.00  0.00    +0.000 OA
BRANCH 108 111
ATOM    111  C   UNK A   6     -13.356   7.893  17.448  0.00  0.00    +0.000 C 
BRANCH 111 112
ATOM    112  C   UNK A   6     -12.447   8.863  18.170  0.00  0.00    +0.000 C 
ATOM    113  O   UNK A   6     -11.586   8.413  18.922  0.00  0.00    +0.000 OA
ATOM    114  N   TRP A   7     -12.620  10.171  17.981  0.00  0.00    +0.000 N 
ATOM    115  H   TRP A   7     -13.381  10.481  17.343  0.00  0.00    +0.000 HD
BRANCH 114 116
ATOM    116  CA  TRP A   7     -11.803  11.184  18.618  0.00  0.00    +0.000 C 
BRANCH 116 117
ATOM    117  C   TRP A   7     -12.733  12.215  19.246  0.00  0.00    +0.000 C 
ATOM    118  O   TRP A   7     -13.878  12.483  18.825  0.00  0.00    +0.000 OA
ENDBRANCH 116 117
BRANCH 116 119
ATOM    119  CB  TRP A   7     -10.844  11.837  17.579  0.00  0.00    +0.000 C 
BRANCH 119 120
ATOM    120  CG  TRP A   7     -11.485  12.632  16.430  0.00  0.00    +0.000 A 
ATOM    121  CD2 TRP A   7     -11.853  13.971  16.432  0.00  0.00    +0.000 A 
ATOM    122  CE3 TRP A   7     -11.798  15.082  17.282  0.00  0.00    +0.000 A 
ATOM    123  CZ3 TRP A   7     -12.335  16.291  16.846  0.00  0.00    +0.000 A 
ATOM    124  CH2 TRP A   7     -12.917  16.394  15.579  0.00  0.00    +0.000 A 
ATOM    125  CZ2 TRP A   7     -12.972  15.294  14.723  0.00  0.00    +0.000 A 
ATOM    126  CE2 TRP A   7     -12.437  14.090  15.163  0.00  0.00    +0.000 A 
ATOM    127  NE1 TRP A   7     -12.381  12.912  14.526  0.00  0.00    +0.000 N 
ATOM    128  HE1 TRP A   7     -12.755  12.746  13.570  0.00  0.00    +0.000 HD
ATOM    129  CD1 TRP A   7     -11.800  11.999  15.254  0.00  0.00    +0.000 A 
ENDBRANCH 119 120
ENDBRANCH 116 119
ENDBRANCH 114 116
ENDBRANCH 111 112
BRANCH 111 130
ATOM    130  C   UNK A   6     -14.565   7.746  18.328  0.00  0.00    +0.000 C 
BRANCH 130 131
ATOM    131  C   UNK A   6     -15.504   6.623  17.941  0.00  0.00    +0.000 A 
ATOM    132  N   UNK A   6     -15.229   5.322  17.954  0.00  0.00    +0.000 NA
ATOM    133  C   UNK A   6     -16.320   4.694  17.601  0.00  0.00    +0.000 A 
ATOM    134  N   UNK A   6     -17.261   5.584  17.370  0.00  0.00    +0.000 NA
ATOM    135  C   UNK A   6     -16.816   6.793  17.558  0.00  0.00    +0.000 A 
ENDBRANCH 130 131
ENDBRANCH 111 130
ENDBRANCH 108 111
ENDBRANCH 106 107
BRANCH 106 136
ATOM    136  CB  VAL A   5     -10.654   4.734  15.196  0.00  0.00    +0.000 C 
ATOM    137  CG2 VAL A   5      -9.699   5.769  15.811  0.00  0.00    +0.000 C 
ATOM    138  CG1 VAL A   5     -10.041   3.336  15.242  0.00  0.00    +0.000 C 
ENDBRANCH 106 136
ENDBRANCH 104 106
ENDBRANCH 101 102
BRANCH 101 139
ATOM    139  C   UNK A   4     -15.741   1.559  15.484  0.00  0.00    +0.000 C 
BRANCH 139 140
ATOM    140  C   UNK A   4     -16.415   0.438  14.670  0.00  0.00    +0.000 C 
ATOM    141  C   UNK A   4     -17.038  -0.526  15.605  0.00  0.00    +0.000 C 
ATOM    142  C   UNK A   4     -17.542   0.956  13.806  0.00  0.00    +0.000 C 
ENDBRANCH 139 140
ENDBRANCH 101 139
ENDBRANCH  98 101
ENDBRANCH  75  97
ENDBRANCH  74  75
ENDBRANCH   5  74
TORSDOF 46
REMARK  Name = ../refined-set-2016/1bnw/1bnw_pocket.pdb
REMARK  149 active torsions:
REMARK  status: ('A' for Active; 'I' for Inactive)
REMARK    1  A    between atoms: _1  and  _3
REMARK    2  A    between atoms: _3  and  _4
REMARK    3  A    between atoms: _3  and  _6
REMARK    4  A    between atoms: _6  and  _7
REMARK    5  A    between atoms: _17  and  _19
REMARK    6  A    between atoms: _19  and  _20
REMARK    7  A    between atoms: _19  and  _22
REMARK    8  A    between atoms: _22  and  _23
REMARK    9  A    between atoms: _28  and  _29
REMARK   10  A    between atoms: _31  and  _33
REMARK   11  A    between atoms: _33  and  _34
REMARK   12  A    between atoms: _33  and  _36
REMARK   13  A    between atoms: _36  and  _37
REMARK   14  A    between atoms: _40  and  _41
REMARK   15  A    between atoms: _46  and  _48
REMARK   16  A    between atoms: _48  and  _49
REMARK   17  A    between atoms: _48  and  _51
REMARK   18  A    between atoms: _51  and  _52
REMARK   19  A    between atoms: _57  and  _59
REMARK   20  A    between atoms: _59  and  _60
REMARK   21  A    between atoms: _63  and  _65
REMARK   22  A    between atoms: _65  and  _66
REMARK   23  A    between atoms: _65  and  _68
REMARK   24  A    between atoms: _68  and  _69
REMARK   25  A    between atoms: _74  and  _76
REMARK   26  A    between atoms: _76  and  _77
REMARK   27  A    between atoms: _76  and  _79
REMARK   28  A    between atoms: _79  and  _80
REMARK   29  A    between atoms: _83  and  _85
REMARK   30  A    between atoms: _85  and  _86
REMARK   31  A    between atoms: _85  and  _88
REMARK   32  A    between atoms: _88  and  _89
REMARK   33  A    between atoms: _89  and  _90
REMARK   34  A    between atoms: _95  and  _97
REMARK   35  A    between atoms: _97  and  _98
REMARK   36  A    between atoms: _97  and  _100
REMARK   37  A    between atoms: _100  and  _101
REMARK   38  A    between atoms: _107  and  _109
REMARK   39  A    between atoms: _120  and  _123
REMARK   40  A    between atoms: _123  and  _124
REMARK   41  A    between atoms: _132  and  _133
REMARK   42  A    between atoms: _141  and  _143
REMARK   43  A    between atoms: _143  and  _144
REMARK   44  A    between atoms: _143  and  _146
REMARK   45  A    between atoms: _146  and  _147
REMARK   46  A    between atoms: _147  and  _148
REMARK   47  A    between atoms: _151  and  _153
REMARK   48  A    between atoms: _153  and  _154
REMARK   49  A    between atoms: _153  and  _156
REMARK   50  A    between atoms: _156  and  _157
REMARK   51  A    between atoms: _162  and  _164
REMARK   52  A    between atoms: _164  and  _165
REMARK   53  A    between atoms: _164  and  _167
REMARK   54  A    between atoms: _167  and  _168
REMARK   55  A    between atoms: _168  and  _169
REMARK   56  A    between atoms: _172  and  _174
REMARK   57  A    between atoms: _174  and  _175
REMARK   58  A    between atoms: _174  and  _177
REMARK   59  A    between atoms: _177  and  _178
REMARK   60  A    between atoms: _181  and  _183
REMARK   61  A    between atoms: _183  and  _184
REMARK   62  A    between atoms: _183  and  _186
REMARK   63  A    between atoms: _186  and  _187
REMARK   64  A    between atoms: _188  and  ZN_424
REMARK   65  A    between atoms: _192  and  _194
REMARK   66  A    between atoms: _194  and  _195
REMARK   67  A    between atoms: _194  and  _197
REMARK   68  A    between atoms: _197  and  _198
REMARK   69  A    between atoms: _201  and  _203
REMARK   70  A    between atoms: _203  and  _204
REMARK   71  A    between atoms: _203  and  _206
REMARK   72  A    between atoms: _209  and  _211
REMARK   73  A    between atoms: _211  and  _212
REMARK   74  A    between atoms: _211  and  _214
REMARK   75  A    between atoms: _214  and  _215
REMARK   76  A    between atoms: _220  and  _222
REMARK   77  A    between atoms: _222  and  _223
REMARK   78  A    between atoms: _222  and  _225
REMARK   79  A    between atoms: _225  and  _226
REMARK   80  A    between atoms: _236  and  _238
REMARK   81  A    between atoms: _238  and  _239
REMARK   82  A    between atoms: _238  and  _241
REMARK   83  A    between atoms: _241  and  _242
REMARK   84  A    between atoms: _248  and  _250
REMARK   85  A    between atoms: _250  and  _251
REMARK   86  A    between atoms: _253  and  _255
REMARK   87  A    between atoms: _255  and  _256
REMARK   88  A    between atoms: _255  and  _258
REMARK   89  A    between atoms: _261  and  _263
REMARK   90  A    between atoms: _263  and  _264
REMARK   91  A    between atoms: _263  and  _266
REMARK   92  A    between atoms: _266  and  _267
REMARK   93  A    between atoms: _270  and  _272
REMARK   94  A    between atoms: _272  and  _273
REMARK   95  A    between atoms: _276  and  _278
REMARK   96  A    between atoms: _278  and  _279
REMARK   97  A    between atoms: _278  and  _281
REMARK   98  A    between atoms: _284  and  _286
REMARK   99  A    between atoms: _286  and  _287
REMARK  100  A    between atoms: _286  and  _289
REMARK  101  A    between atoms: _289  and  _290
REMARK  102  A    between atoms: _293  and  _295
REMARK  103  A    between atoms: _295  and  _296
REMARK  104  A    between atoms: _298  and  _300
REMARK  105  A    between atoms: _300  and  _301
REMARK  106  A    between atoms: _300  and  _303
REMARK  107  A    between atoms: _303  and  _304
REMARK  108  A    between atoms: _306  and  _308
REMARK  109  A    between atoms: _308  and  _309
REMARK  110  A    between atoms: _308  and  _311
REMARK  111  A    between atoms: _311  and  _312
REMARK  112  A    between atoms: _315  and  _317
REMARK  113  A    between atoms: _317  and  _318
REMARK  114  A    between atoms: _317  and  _320
REMARK  115  A    between atoms: _320  and  _321
REMARK  116  A    between atoms: _324  and  _326
REMARK  117  A    between atoms: _326  and  _327
REMARK  118  A    between atoms: _326  and  _329
REMARK  119  A    between atoms: _329  and  _330
REMARK  120  A    between atoms: _334  and  _335
REMARK  121  A    between atoms: _341  and  _342
REMARK  122  A    between atoms: _347  and  _349
REMARK  123  A    between atoms: _349  and  _350
REMARK  124  A    between atoms: _349  and  _352
REMARK  125  A    between atoms: _352  and  _353
REMARK  126  A    between atoms: _356  and  _358
REMARK  127  A    between atoms: _358  and  _359
REMARK  128  A    between atoms: _358  and  _361
REMARK  129  A    between atoms: _361  and  _362
REMARK  130  A    between atoms: _365  and  _367
REMARK  131  A    between atoms: _367  and  _368
REMARK  132  A    between atoms: _367  and  _370
REMARK  133  A    between atoms: _372  and  _374
REMARK  134  A    between atoms: _374  and  _375
REMARK  135  A    between atoms: _374  and  _377
REMARK  136  A    between atoms: _380  and  _382
REMARK  137  A    between atoms: _382  and  _383
REMARK  138  A    between atoms: _382  and  _385
REMARK  139  A    between atoms: _385  and  _386
REMARK  140  A    between atoms: _396  and  _398
REMARK  141  A    between atoms: _398  and  _399
REMARK  142  A    between atoms: _398  and  _401
REMARK  143  A    between atoms: _401  and  _402
REMARK  144  A    between atoms: _407  and  _409
REMARK  145  A    between atoms: _409  and  _410
REMARK  146  A    between atoms: _409  and  _412
REMARK  147  A    between atoms: _412  and  _413
REMARK  148  A    between atoms: _413  and  _414
REMARK  149  A    between atoms: _414  and  _415
REMARK                            x       y       z     vdW  Elec       q    Type
REMARK                         _______ _______ _______ _____ _____    ______ ____
ROOT
ATOM      1  C   GLU A   1      -6.056  -8.493  21.183  0.00  0.00    +0.238 C 
ATOM      2  O   GLU A   1      -5.222  -8.926  21.966  0.00  0.00    -0.274 OA
ATOM      3  N   HIS A   2      -7.277  -8.164  21.613  0.00  0.00    -0.298 N 
ATOM      4  H   HIS A   2      -7.936  -7.736  20.932  0.00  0.00    +0.150 HD
ENDROOT
BRANCH   1   5
ATOM      5  CA  GLU A   1      -5.770  -8.285  19.675  0.00  0.00    +0.145 C 
BRANCH   5   6
ATOM      6  N   GLU A   1      -6.854  -8.855  18.891  0.00  0.00    -0.238 NA
ATOM      7  H   GLU A   1      -7.695  -8.280  18.681  0.00  0.00    +0.142 HD
ENDBRANCH   5   6
BRANCH   5   8
ATOM      8  CB  GLU A   1      -5.666  -6.797  19.313  0.00  0.00    +0.038 C 
BRANCH   8   9
ATOM      9  CG  GLU A   1      -5.263  -6.566  17.872  0.00  0.00    +0.116 C 
BRANCH   9  10
ATOM     10  CD  GLU A   1      -4.529  -5.249  17.659  0.00  0.00    +0.365 C 
ATOM     11  OE2 GLU A   1      -5.088  -4.171  17.823  0.00  0.00    -0.246 OA
ATOM     12  OE1 GLU A   1      -3.376  -5.306  17.301  0.00  0.00    -0.246 OA
ENDBRANCH   9  10
ENDBRANCH   8   9
ENDBRANCH   5   8
ENDBRANCH   1   5
BRANCH   3  13
ATOM     13  CA  HIS A   2      -7.734  -8.366  22.961  0.00  0.00    +0.143 C 
BRANCH  13  14
ATOM     14  C   HIS A   2      -8.097  -9.831  23.044  0.00  0.00    +0.227 C 
ATOM     15  O   HIS A   2      -8.492 -10.416  22.024  0.00  0.00    -0.286 OA
ENDBRANCH  13  14
BRANCH  13  16
ATOM     16  CB  HIS A   2      -8.979  -7.511  23.253  0.00  0.00    +0.075 C 
BRANCH  16  17
ATOM     17  CG  HIS A   2      -8.605  -6.044  23.407  0.00  0.00    +0.082 A 
ATOM     18  CD2 HIS A   2      -8.294  -5.481  24.626  0.00  0.00    +0.115 A 
ATOM     19  NE2 HIS A   2      -7.960  -4.243  24.380  0.00  0.00    -0.221 NA
ATOM     20  CE1 HIS A   2      -8.038  -3.976  23.105  0.00  0.00    +0.199 A 
ATOM     21  ND1 HIS A   2      -8.438  -5.072  22.497  0.00  0.00    -0.227 NA
ENDBRANCH  16  17
ENDBRANCH  13  16
ENDBRANCH   3  13
TORSDOF 9
REMARK  Name = ../refined-set-2016/1bnw/1bnw_pocket.pdb
REMARK  149 active torsions:
REMARK  status: ('A' for Active; 'I' for Inactive)
REMARK    1  A    between atoms: _1  and  _3
REMARK    2  A    between atoms: _3  and  _4
REMARK    3  A    between atoms: _3  and  _6
REMARK    4  A    between atoms: _6  and  _7
REMARK    5  A    between atoms: _17  and  _19
REMARK    6  A    between atoms: _19  and  _20
REMARK    7  A    between atoms: _19  and  _22
REMARK    8  A    between atoms: _22  and  _23
REMARK    9  A    between atoms: _28  and  _29
REMARK   10  A    between atoms: _31  and  _33
REMARK   11  A    between atoms: _33  and  _34
REMARK   12  A    between atoms: _33  and  _36
REMARK   13  A    between atoms: _36  and  _37
REMARK   14  A    between atoms: _40  and  _41
REMARK   15  A    between atoms: _46  and  _48
REMARK   16  A    between atoms: _48  and  _49
REMARK   17  A    between atoms: _48  and  _51
REMARK   18  A    between atoms: _51  and  _52
REMARK   19  A    between atoms: _57  and  _59
REMARK   20  A    between atoms: _59  and  _60
REMARK   21  A    between atoms: _63  and  _65
REMARK   22  A    between atoms: _65  and  _66
REMARK   23  A    between atoms: _65  and  _68
REMARK   24  A    between atoms: _68  and  _69
REMARK   25  A    between atoms: _74  and  _76
REMARK   26  A    between atoms: _76  and  _77
REMARK   27  A    between atoms: _76  and  _79
REMARK   28  A    between atoms: _79  and  _80
REMARK   29  A    between atoms: _83  and  _85
REMARK   30  A    between atoms: _85  and  _86
REMARK   31  A    between atoms: _85  and  _88
REMARK   32  A    between atoms: _88  and  _89
REMARK   33  A    between atoms: _89  and  _90
REMARK   34  A    between atoms: _95  and  _97
REMARK   35  A    between atoms: _97  and  _98
REMARK   36  A    between atoms: _97  and  _100
REMARK   37  A    between atoms: _100  and  _101
REMARK   38  A    between atoms: _107  and  _109
REMARK   39  A    between atoms: _120  and  _123
REMARK   40  A    between atoms: _123  and  _124
REMARK   41  A    between atoms: _132  and  _133
REMARK   42  A    between atoms: _141  and  _143
REMARK   43  A    between atoms: _143  and  _144
REMARK   44  A    between atoms: _143  and  _146
REMARK   45  A    between atoms: _146  and  _147
REMARK   46  A    between atoms: _147  and  _148
REMARK   47  A    between atoms: _151  and  _153
REMARK   48  A    between atoms: _153  and  _154
REMARK   49  A    between atoms: _153  and  _156
REMARK   50  A    between atoms: _156  and  _157
REMARK   51  A    between atoms: _162  and  _164
REMARK   52  A    between atoms: _164  and  _165
REMARK   53  A    between atoms: _164  and  _167
REMARK   54  A    between atoms: _167  and  _168
REMARK   55  A    between atoms: _168  and  _169
REMARK   56  A    between atoms: _172  and  _174
REMARK   57  A    between atoms: _174  and  _175
REMARK   58  A    between atoms: _174  and  _177
REMARK   59  A    between atoms: _177  and  _178
REMARK   60  A    between atoms: _181  and  _183
REMARK   61  A    between atoms: _183  and  _184
REMARK   62  A    between atoms: _183  and  _186
REMARK   63  A    between atoms: _186  and  _187
REMARK   64  A    between atoms: _188  and  ZN_424
REMARK   65  A    between atoms: _192  and  _194
REMARK   66  A    between atoms: _194  and  _195
REMARK   67  A    between atoms: _194  and  _197
REMARK   68  A    between atoms: _197  and  _198
REMARK   69  A    between atoms: _201  and  _203
REMARK   70  A    between atoms: _203  and  _204
REMARK   71  A    between atoms: _203  and  _206
REMARK   72  A    between atoms: _209  and  _211
REMARK   73  A    between atoms: _211  and  _212
REMARK   74  A    between atoms: _211  and  _214
REMARK   75  A    between atoms: _214  and  _215
REMARK   76  A    between atoms: _220  and  _222
REMARK   77  A    between atoms: _222  and  _223
REMARK   78  A    between atoms: _222  and  _225
REMARK   79  A    between atoms: _225  and  _226
REMARK   80  A    between atoms: _236  and  _238
REMARK   81  A    between atoms: _238  and  _239
REMARK   82  A    between atoms: _238  and  _241
REMARK   83  A    between atoms: _241  and  _242
REMARK   84  A    between atoms: _248  and  _250
REMARK   85  A    between atoms: _250  and  _251
REMARK   86  A    between atoms: _253  and  _255
REMARK   87  A    between atoms: _255  and  _256
REMARK   88  A    between atoms: _255  and  _258
REMARK   89  A    between atoms: _261  and  _263
REMARK   90  A    between atoms: _263  and  _264
REMARK   91  A    between atoms: _263  and  _266
REMARK   92  A    between atoms: _266  and  _267
REMARK   93  A    between atoms: _270  and  _272
REMARK   94  A    between atoms: _272  and  _273
REMARK   95  A    between atoms: _276  and  _278
REMARK   96  A    between atoms: _278  and  _279
REMARK   97  A    between atoms: _278  and  _281
REMARK   98  A    between atoms: _284  and  _286
REMARK   99  A    between atoms: _286  and  _287
REMARK  100  A    between atoms: _286  and  _289
REMARK  101  A    between atoms: _289  and  _290
REMARK  102  A    between atoms: _293  and  _295
REMARK  103  A    between atoms: _295  and  _296
REMARK  104  A    between atoms: _298  and  _300
REMARK  105  A    between atoms: _300  and  _301
REMARK  106  A    between atoms: _300  and  _303
REMARK  107  A    between atoms: _303  and  _304
REMARK  108  A    between atoms: _306  and  _308
REMARK  109  A    between atoms: _308  and  _309
REMARK  110  A    between atoms: _308  and  _311
REMARK  111  A    between atoms: _311  and  _312
REMARK  112  A    between atoms: _315  and  _317
REMARK  113  A    between atoms: _317  and  _318
REMARK  114  A    between atoms: _317  and  _320
REMARK  115  A    between atoms: _320  and  _321
REMARK  116  A    between atoms: _324  and  _326
REMARK  117  A    between atoms: _326  and  _327
REMARK  118  A    between atoms: _326  and  _329
REMARK  119  A    between atoms: _329  and  _330
REMARK  120  A    between atoms: _334  and  _335
REMARK  121  A    between atoms: _341  and  _342
REMARK  122  A    between atoms: _347  and  _349
REMARK  123  A    between atoms: _349  and  _350
REMARK  124  A    between atoms: _349  and  _352
REMARK  125  A    between atoms: _352  and  _353
REMARK  126  A    between atoms: _356  and  _358
REMARK  127  A    between atoms: _358  and  _359
REMARK  128  A    between atoms: _358  and  _361
REMARK  129  A    between atoms: _361  and  _362
REMARK  130  A    between atoms: _365  and  _367
REMARK  131  A    between atoms: _367  and  _368
REMARK  132  A    between atoms: _367  and  _370
REMARK  133  A    between atoms: _372  and  _374
REMARK  134  A    between atoms: _374  and  _375
REMARK  135  A    between atoms: _374  and  _377
REMARK  136  A    between atoms: _380  and  _382
REMARK  137  A    between atoms: _382  and  _383
REMARK  138  A    between atoms: _382  and  _385
REMARK  139  A    between atoms: _385  and  _386
REMARK  140  A    between atoms: _396  and  _398
REMARK  141  A    between atoms: _398  and  _399
REMARK  142  A    between atoms: _398  and  _401
REMARK  143  A    between atoms: _401  and  _402
REMARK  144  A    between atoms: _407  and  _409
REMARK  145  A    between atoms: _409  and  _410
REMARK  146  A    between atoms: _409  and  _412
REMARK  147  A    between atoms: _412  and  _413
REMARK  148  A    between atoms: _413  and  _414
REMARK  149  A    between atoms: _414  and  _415
REMARK                            x       y       z     vdW  Elec       q    Type
REMARK                         _______ _______ _______ _____ _____    ______ ____
ROOT
ATOM      1  CA  PHE A   1      -7.984  14.085  15.385  0.00  0.00    +0.149 C 
ENDROOT
BRANCH   1   2
ATOM      2  C   PHE A   1      -6.559  14.300  15.860  0.00  0.00    +0.239 C 
ATOM      3  O   PHE A   1      -6.116  13.723  16.851  0.00  0.00    -0.274 OA
ATOM      4  N   GLY A   2      -5.860  15.203  15.178  0.00  0.00    -0.297 N 
ATOM      5  H   GLY A   2      -6.325  15.723  14.407  0.00  0.00    +0.150 HD
BRANCH   4   6
ATOM      6  CA  GLY A   2      -4.462  15.486  15.479  0.00  0.00    +0.163 C 
BRANCH   6   7
ATOM      7  C   GLY A   2      -4.257  16.109  16.835  0.00  0.00    +0.229 C 
ATOM      8  O   GLY A   2      -3.257  15.824  17.469  0.00  0.00    -0.286 OA
ENDBRANCH   6   7
ENDBRANCH   4   6
ENDBRANCH   1   2
BRANCH   1   9
ATOM      9  N   PHE A   1      -8.609  15.323  14.975  0.00  0.00    -0.238 NA
ATOM     10  H   PHE A   1      -9.020  15.378  14.021  0.00  0.00    +0.142 HD
ENDBRANCH   1   9
BRANCH   1  11
ATOM     11  CB  PHE A   1      -8.002  13.127  14.223  0.00  0.00    +0.053 C 
BRANCH  11  12
ATOM     12  CG  PHE A   1      -7.502  11.729  14.548  0.00  0.00    -0.020 A 
ATOM     13  CD2 PHE A   1      -8.394  10.780  15.032  0.00  0.00    -0.004 A 
ATOM     14  CE2 PHE A   1      -7.930   9.497  15.327  0.00  0.00    -0.000 A 
ATOM     15  CZ  PHE A   1      -6.587   9.163  15.144  0.00  0.00    -0.000 A 
ATOM     16  CE1 PHE A   1      -5.694  10.115  14.659  0.00  0.00    -0.000 A 
ATOM     17  CD1 PHE A   1      -6.152  11.396  14.361  0.00  0.00    -0.004 A 
ENDBRANCH  11  12
ENDBRANCH   1  11
TORSDOF 6
REMARK  Name = ../refined-set-2016/1bnw/1bnw_pocket.pdb
REMARK  149 active torsions:
REMARK  status: ('A' for Active; 'I' for Inactive)
REMARK    1  A    between atoms: _1  and  _3
REMARK    2  A    between atoms: _3  and  _4
REMARK    3  A    between atoms: _3  and  _6
REMARK    4  A    between atoms: _6  and  _7
REMARK    5  A    between atoms: _17  and  _19
REMARK    6  A    between atoms: _19  and  _20
REMARK    7  A    between atoms: _19  and  _22
REMARK    8  A    between atoms: _22  and  _23
REMARK    9  A    between atoms: _28  and  _29
REMARK   10  A    between atoms: _31  and  _33
REMARK   11  A    between atoms: _33  and  _34
REMARK   12  A    between atoms: _33  and  _36
REMARK   13  A    between atoms: _36  and  _37
REMARK   14  A    between atoms: _40  and  _41
REMARK   15  A    between atoms: _46  and  _48
REMARK   16  A    between atoms: _48  and  _49
REMARK   17  A    between atoms: _48  and  _51
REMARK   18  A    between atoms: _51  and  _52
REMARK   19  A    between atoms: _57  and  _59
REMARK   20  A    between atoms: _59  and  _60
REMARK   21  A    between atoms: _63  and  _65
REMARK   22  A    between atoms: _65  and  _66
REMARK   23  A    between atoms: _65  and  _68
REMARK   24  A    between atoms: _68  and  _69
REMARK   25  A    between atoms: _74  and  _76
REMARK   26  A    between atoms: _76  and  _77
REMARK   27  A    between atoms: _76  and  _79
REMARK   28  A    between atoms: _79  and  _80
REMARK   29  A    between atoms: _83  and  _85
REMARK   30  A    between atoms: _85  and  _86
REMARK   31  A    between atoms: _85  and  _88
REMARK   32  A    between atoms: _88  and  _89
REMARK   33  A    between atoms: _89  and  _90
REMARK   34  A    between atoms: _95  and  _97
REMARK   35  A    between atoms: _97  and  _98
REMARK   36  A    between atoms: _97  and  _100
REMARK   37  A    between atoms: _100  and  _101
REMARK   38  A    between atoms: _107  and  _109
REMARK   39  A    between atoms: _120  and  _123
REMARK   40  A    between atoms: _123  and  _124
REMARK   41  A    between atoms: _132  and  _133
REMARK   42  A    between atoms: _141  and  _143
REMARK   43  A    between atoms: _143  and  _144
REMARK   44  A    between atoms: _143  and  _146
REMARK   45  A    between atoms: _146  and  _147
REMARK   46  A    between atoms: _147  and  _148
REMARK   47  A    between atoms: _151  and  _153
REMARK   48  A    between atoms: _153  and  _154
REMARK   49  A    between atoms: _153  and  _156
REMARK   50  A    between atoms: _156  and  _157
REMARK   51  A    between atoms: _162  and  _164
REMARK   52  A    between atoms: _164  and  _165
REMARK   53  A    between atoms: _164  and  _167
REMARK   54  A    between atoms: _167  and  _168
REMARK   55  A    between atoms: _168  and  _169
REMARK   56  A    between atoms: _172  and  _174
REMARK   57  A    between atoms: _174  and  _175
REMARK   58  A    between atoms: _174  and  _177
REMARK   59  A    between atoms: _177  and  _178
REMARK   60  A    between atoms: _181  and  _183
REMARK   61  A    between atoms: _183  and  _184
REMARK   62  A    between atoms: _183  and  _186
REMARK   63  A    between atoms: _186  and  _187
REMARK   64  A    between atoms: _188  and  ZN_424
REMARK   65  A    between atoms: _192  and  _194
REMARK   66  A    between atoms: _194  and  _195
REMARK   67  A    between atoms: _194  and  _197
REMARK   68  A    between atoms: _197  and  _198
REMARK   69  A    between atoms: _201  and  _203
REMARK   70  A    between atoms: _203  and  _204
REMARK   71  A    between atoms: _203  and  _206
REMARK   72  A    between atoms: _209  and  _211
REMARK   73  A    between atoms: _211  and  _212
REMARK   74  A    between atoms: _211  and  _214
REMARK   75  A    between atoms: _214  and  _215
REMARK   76  A    between atoms: _220  and  _222
REMARK   77  A    between atoms: _222  and  _223
REMARK   78  A    between atoms: _222  and  _225
REMARK   79  A    between atoms: _225  and  _226
REMARK   80  A    between atoms: _236  and  _238
REMARK   81  A    between atoms: _238  and  _239
REMARK   82  A    between atoms: _238  and  _241
REMARK   83  A    between atoms: _241  and  _242
REMARK   84  A    between atoms: _248  and  _250
REMARK   85  A    between atoms: _250  and  _251
REMARK   86  A    between atoms: _253  and  _255
REMARK   87  A    between atoms: _255  and  _256
REMARK   88  A    between atoms: _255  and  _258
REMARK   89  A    between atoms: _261  and  _263
REMARK   90  A    between atoms: _263  and  _264
REMARK   91  A    between atoms: _263  and  _266
REMARK   92  A    between atoms: _266  and  _267
REMARK   93  A    between atoms: _270  and  _272
REMARK   94  A    between atoms: _272  and  _273
REMARK   95  A    between atoms: _276  and  _278
REMARK   96  A    between atoms: _278  and  _279
REMARK   97  A    between atoms: _278  and  _281
REMARK   98  A    between atoms: _284  and  _286
REMARK   99  A    between atoms: _286  and  _287
REMARK  100  A    between atoms: _286  and  _289
REMARK  101  A    between atoms: _289  and  _290
REMARK  102  A    between atoms: _293  and  _295
REMARK  103  A    between atoms: _295  and  _296
REMARK  104  A    between atoms: _298  and  _300
REMARK  105  A    between atoms: _300  and  _301
REMARK  106  A    between atoms: _300  and  _303
REMARK  107  A    between atoms: _303  and  _304
REMARK  108  A    between atoms: _306  and  _308
REMARK  109  A    between atoms: _308  and  _309
REMARK  110  A    between atoms: _308  and  _311
REMARK  111  A    between atoms: _311  and  _312
REMARK  112  A    between atoms: _315  and  _317
REMARK  113  A    between atoms: _317  and  _318
REMARK  114  A    between atoms: _317  and  _320
REMARK  115  A    between atoms: _320  and  _321
REMARK  116  A    between atoms: _324  and  _326
REMARK  117  A    between atoms: _326  and  _327
REMARK  118  A    between atoms: _326  and  _329
REMARK  119  A    between atoms: _329  and  _330
REMARK  120  A    between atoms: _334  and  _335
REMARK  121  A    between atoms: _341  and  _342
REMARK  122  A    between atoms: _347  and  _349
REMARK  123  A    between atoms: _349  and  _350
REMARK  124  A    between atoms: _349  and  _352
REMARK  125  A    between atoms: _352  and  _353
REMARK  126  A    between atoms: _356  and  _358
REMARK  127  A    between atoms: _358  and  _359
REMARK  128  A    between atoms: _358  and  _361
REMARK  129  A    between atoms: _361  and  _362
REMARK  130  A    between atoms: _365  and  _367
REMARK  131  A    between atoms: _367  and  _368
REMARK  132  A    between atoms: _367  and  _370
REMARK  133  A    between atoms: _372  and  _374
REMARK  134  A    between atoms: _374  and  _375
REMARK  135  A    between atoms: _374  and  _377
REMARK  136  A    between atoms: _380  and  _382
REMARK  137  A    between atoms: _382  and  _383
REMARK  138  A    between atoms: _382  and  _385
REMARK  139  A    between atoms: _385  and  _386
REMARK  140  A    between atoms: _396  and  _398
REMARK  141  A    between atoms: _398  and  _399
REMARK  142  A    between atoms: _398  and  _401
REMARK  143  A    between atoms: _401  and  _402
REMARK  144  A    between atoms: _407  and  _409
REMARK  145  A    between atoms: _409  and  _410
REMARK  146  A    between atoms: _409  and  _412
REMARK  147  A    between atoms: _412  and  _413
REMARK  148  A    between atoms: _413  and  _414
REMARK  149  A    between atoms: _414  and  _415
REMARK                            x       y       z     vdW  Elec       q    Type
REMARK                         _______ _______ _______ _____ _____    ______ ____
ROOT
ATOM      1  CA  VAL A   1      -4.012  12.218  19.942  0.00  0.00    +0.133 C 
ENDROOT
BRANCH   1   2
ATOM      2  CB  VAL A   1      -3.359  11.543  18.667  0.00  0.00    +0.023 C 
ATOM      3  CG2 VAL A   1      -4.484  10.816  17.968  0.00  0.00    +0.002 C 
ATOM      4  CG1 VAL A   1      -2.665  12.505  17.715  0.00  0.00    +0.002 C 
ENDBRANCH   1   2
BRANCH   1   5
ATOM      5  N   VAL A   1      -5.060  13.174  19.603  0.00  0.00    -0.239 NA
ATOM      6  H   VAL A   1      -5.117  13.549  18.635  0.00  0.00    +0.142 HD
ENDBRANCH   1   5
BRANCH   1   7
ATOM      7  C   VAL A   1      -2.918  12.879  20.767  0.00  0.00    +0.224 C 
ATOM      8  O   VAL A   1      -1.822  12.344  20.890  0.00  0.00    -0.287 OA
ENDBRANCH   1   7
TORSDOF 3
REMARK  Name = ../refined-set-2016/1bnw/1bnw_pocket.pdb
REMARK  149 active torsions:
REMARK  status: ('A' for Active; 'I' for Inactive)
REMARK    1  A    between atoms: _1  and  _3
REMARK    2  A    between atoms: _3  and  _4
REMARK    3  A    between atoms: _3  and  _6
REMARK    4  A    between atoms: _6  and  _7
REMARK    5  A    between atoms: _17  and  _19
REMARK    6  A    between atoms: _19  and  _20
REMARK    7  A    between atoms: _19  and  _22
REMARK    8  A    between atoms: _22  and  _23
REMARK    9  A    between atoms: _28  and  _29
REMARK   10  A    between atoms: _31  and  _33
REMARK   11  A    between atoms: _33  and  _34
REMARK   12  A    between atoms: _33  and  _36
REMARK   13  A    between atoms: _36  and  _37
REMARK   14  A    between atoms: _40  and  _41
REMARK   15  A    between atoms: _46  and  _48
REMARK   16  A    between atoms: _48  and  _49
REMARK   17  A    between atoms: _48  and  _51
REMARK   18  A    between atoms: _51  and  _52
REMARK   19  A    between atoms: _57  and  _59
REMARK   20  A    between atoms: _59  and  _60
REMARK   21  A    between atoms: _63  and  _65
REMARK   22  A    between atoms: _65  and  _66
REMARK   23  A    between atoms: _65  and  _68
REMARK   24  A    between atoms: _68  and  _69
REMARK   25  A    between atoms: _74  and  _76
REMARK   26  A    between atoms: _76  and  _77
REMARK   27  A    between atoms: _76  and  _79
REMARK   28  A    between atoms: _79  and  _80
REMARK   29  A    between atoms: _83  and  _85
REMARK   30  A    between atoms: _85  and  _86
REMARK   31  A    between atoms: _85  and  _88
REMARK   32  A    between atoms: _88  and  _89
REMARK   33  A    between atoms: _89  and  _90
REMARK   34  A    between atoms: _95  and  _97
REMARK   35  A    between atoms: _97  and  _98
REMARK   36  A    between atoms: _97  and  _100
REMARK   37  A    between atoms: _100  and  _101
REMARK   38  A    between atoms: _107  and  _109
REMARK   39  A    between atoms: _120  and  _123
REMARK   40  A    between atoms: _123  and  _124
REMARK   41  A    between atoms: _132  and  _133
REMARK   42  A    between atoms: _141  and  _143
REMARK   43  A    between atoms: _143  and  _144
REMARK   44  A    between atoms: _143  and  _146
REMARK   45  A    between atoms: _146  and  _147
REMARK   46  A    between atoms: _147  and  _148
REMARK   47  A    between atoms: _151  and  _153
REMARK   48  A    between atoms: _153  and  _154
REMARK   49  A    between atoms: _153  and  _156
REMARK   50  A    between atoms: _156  and  _157
REMARK   51  A    between atoms: _162  and  _164
REMARK   52  A    between atoms: _164  and  _165
REMARK   53  A    between atoms: _164  and  _167
REMARK   54  A    between atoms: _167  and  _168
REMARK   55  A    between atoms: _168  and  _169
REMARK   56  A    between atoms: _172  and  _174
REMARK   57  A    between atoms: _174  and  _175
REMARK   58  A    between atoms: _174  and  _177
REMARK   59  A    between atoms: _177  and  _178
REMARK   60  A    between atoms: _181  and  _183
REMARK   61  A    between atoms: _183  and  _184
REMARK   62  A    between atoms: _183  and  _186
REMARK   63  A    between atoms: _186  and  _187
REMARK   64  A    between atoms: _188  and  ZN_424
REMARK   65  A    between atoms: _192  and  _194
REMARK   66  A    between atoms: _194  and  _195
REMARK   67  A    between atoms: _194  and  _197
REMARK   68  A    between atoms: _197  and  _198
REMARK   69  A    between atoms: _201  and  _203
REMARK   70  A    between atoms: _203  and  _204
REMARK   71  A    between atoms: _203  and  _206
REMARK   72  A    between atoms: _209  and  _211
REMARK   73  A    between atoms: _211  and  _212
REMARK   74  A    between atoms: _211  and  _214
REMARK   75  A    between atoms: _214  and  _215
REMARK   76  A    between atoms: _220  and  _222
REMARK   77  A    between atoms: _222  and  _223
REMARK   78  A    between atoms: _222  and  _225
REMARK   79  A    between atoms: _225  and  _226
REMARK   80  A    between atoms: _236  and  _238
REMARK   81  A    between atoms: _238  and  _239
REMARK   82  A    between atoms: _238  and  _241
REMARK   83  A    between atoms: _241  and  _242
REMARK   84  A    between atoms: _248  and  _250
REMARK   85  A    between atoms: _250  and  _251
REMARK   86  A    between atoms: _253  and  _255
REMARK   87  A    between atoms: _255  and  _256
REMARK   88  A    between atoms: _255  and  _258
REMARK   89  A    between atoms: _261  and  _263
REMARK   90  A    between atoms: _263  and  _264
REMARK   91  A    between atoms: _263  and  _266
REMARK   92  A    between atoms: _266  and  _267
REMARK   93  A    between atoms: _270  and  _272
REMARK   94  A    between atoms: _272  and  _273
REMARK   95  A    between atoms: _276  and  _278
REMARK   96  A    between atoms: _278  and  _279
REMARK   97  A    between atoms: _278  and  _281
REMARK   98  A    between atoms: _284  and  _286
REMARK   99  A    between atoms: _286  and  _287
REMARK  100  A    between atoms: _286  and  _289
REMARK  101  A    between atoms: _289  and  _290
REMARK  102  A    between atoms: _293  and  _295
REMARK  103  A    between atoms: _295  and  _296
REMARK  104  A    between atoms: _298  and  _300
REMARK  105  A    between atoms: _300  and  _301
REMARK  106  A    between atoms: _300  and  _303
REMARK  107  A    between atoms: _303  and  _304
REMARK  108  A    between atoms: _306  and  _308
REMARK  109  A    between atoms: _308  and  _309
REMARK  110  A    between atoms: _308  and  _311
REMARK  111  A    between atoms: _311  and  _312
REMARK  112  A    between atoms: _315  and  _317
REMARK  113  A    between atoms: _317  and  _318
REMARK  114  A    between atoms: _317  and  _320
REMARK  115  A    between atoms: _320  and  _321
REMARK  116  A    between atoms: _324  and  _326
REMARK  117  A    between atoms: _326  and  _327
REMARK  118  A    between atoms: _326  and  _329
REMARK  119  A    between atoms: _329  and  _330
REMARK  120  A    between atoms: _334  and  _335
REMARK  121  A    between atoms: _341  and  _342
REMARK  122  A    between atoms: _347  and  _349
REMARK  123  A    between atoms: _349  and  _350
REMARK  124  A    between atoms: _349  and  _352
REMARK  125  A    between atoms: _352  and  _353
REMARK  126  A    between atoms: _356  and  _358
REMARK  127  A    between atoms: _358  and  _359
REMARK  128  A    between atoms: _358  and  _361
REMARK  129  A    between atoms: _361  and  _362
REMARK  130  A    between atoms: _365  and  _367
REMARK  131  A    between atoms: _367  and  _368
REMARK  132  A    between atoms: _367  and  _370
REMARK  133  A    between atoms: _372  and  _374
REMARK  134  A    between atoms: _374  and  _375
REMARK  135  A    between atoms: _374  and  _377
REMARK  136  A    between atoms: _380  and  _382
REMARK  137  A    between atoms: _382  and  _383
REMARK  138  A    between atoms: _382  and  _385
REMARK  139  A    between atoms: _385  and  _386
REMARK  140  A    between atoms: _396  and  _398
REMARK  141  A    between atoms: _398  and  _399
REMARK  142  A    between atoms: _398  and  _401
REMARK  143  A    between atoms: _401  and  _402
REMARK  144  A    between atoms: _407  and  _409
REMARK  145  A    between atoms: _409  and  _410
REMARK  146  A    between atoms: _409  and  _412
REMARK  147  A    between atoms: _412  and  _413
REMARK  148  A    between atoms: _413  and  _414
REMARK  149  A    between atoms: _414  and  _415
REMARK                            x       y       z     vdW  Elec       q    Type
REMARK                         _______ _______ _______ _____ _____    ______ ____
ROOT
ATOM      1  CA  VAL A   3     -12.008   2.816  20.179  0.00  0.00    +0.149 C 
ENDROOT
BRANCH   1   3
ATOM      2  C   ALA A   2     -12.408   5.035  20.984  0.00  0.00    +0.241 C 
ATOM      3  N   VAL A   3     -11.944   3.818  21.214  0.00  0.00    -0.297 N 
ATOM      4  H   VAL A   3     -11.533   3.584  22.140  0.00  0.00    +0.150 HD
ATOM      5  O   ALA A   2     -12.812   5.366  19.855  0.00  0.00    -0.273 OA
BRANCH   2   6
ATOM      6  CA  ALA A   2     -12.288   6.029  22.124  0.00  0.00    +0.149 C 
ATOM      7  CB  ALA A   2     -13.694   6.423  22.550  0.00  0.00    +0.031 C 
BRANCH   6  10
ATOM      8  C   LEU A   1     -10.485   7.669  22.261  0.00  0.00    +0.238 C 
ATOM      9  O   LEU A   1     -10.135   7.255  23.367  0.00  0.00    -0.274 OA
ATOM     10  N   ALA A   2     -11.524   7.163  21.610  0.00  0.00    -0.297 N 
ATOM     11  H   ALA A   2     -11.804   7.588  20.703  0.00  0.00    +0.150 HD
BRANCH   8  12
ATOM     12  CA  LEU A   1      -9.654   8.724  21.586  0.00  0.00    +0.145 C 
BRANCH  12  13
ATOM     13  N   LEU A   1      -9.030   9.683  22.488  0.00  0.00    -0.238 NA
ATOM     14  H   LEU A   1      -8.437   9.347  23.274  0.00  0.00    +0.142 HD
ENDBRANCH  12  13
BRANCH  12  15
ATOM     15  CB  LEU A   1      -8.630   7.955  20.759  0.00  0.00    +0.026 C 
BRANCH  15  16
ATOM     16  CG  LEU A   1      -7.629   8.633  19.847  0.00  0.00    +0.002 C 
ATOM     17  CD2 LEU A   1      -7.002   7.551  18.995  0.00  0.00    +0.000 C 
ATOM     18  CD1 LEU A   1      -8.279   9.662  18.945  0.00  0.00    +0.000 C 
ENDBRANCH  15  16
ENDBRANCH  12  15
ENDBRANCH   8  12
ENDBRANCH   6  10
ENDBRANCH   2   6
ENDBRANCH   1   3
BRANCH   1  19
ATOM     19  C   VAL A   3     -13.016   1.797  20.692  0.00  0.00    +0.241 C 
ATOM     20  O   VAL A   3     -12.955   1.386  21.859  0.00  0.00    -0.273 OA
ATOM     21  N   LEU A   4     -13.969   1.434  19.823  0.00  0.00    -0.297 N 
ATOM     22  H   LEU A   4     -13.970   1.864  18.876  0.00  0.00    +0.150 HD
BRANCH  21  23
ATOM     23  CA  LEU A   4     -15.000   0.465  20.148  0.00  0.00    +0.149 C 
BRANCH  23  24
ATOM     24  C   LEU A   4     -14.427  -0.822  19.570  0.00  0.00    +0.241 C 
ATOM     25  N   GLY A   5     -14.179  -1.930  20.259  0.00  0.00    -0.296 N 
ATOM     26  H   GLY A   5     -14.467  -1.967  21.258  0.00  0.00    +0.150 HD
ATOM     27  O   LEU A   4     -14.208  -0.795  18.366  0.00  0.00    -0.273 OA
BRANCH  25  28
ATOM     28  CA  GLY A   5     -13.523  -3.094  19.683  0.00  0.00    +0.163 C 
BRANCH  28  29
ATOM     29  C   GLY A   5     -14.566  -4.189  19.655  0.00  0.00    +0.229 C 
ATOM     30  O   GLY A   5     -15.326  -4.318  20.618  0.00  0.00    -0.286 OA
ENDBRANCH  28  29
ENDBRANCH  25  28
ENDBRANCH  23  24
BRANCH  23  31
ATOM     31  CB  LEU A   4     -16.286   0.843  19.436  0.00  0.00    +0.029 C 
BRANCH  31  32
ATOM     32  CG  LEU A   4     -17.646   0.846  20.086  0.00  0.00    +0.002 C 
ATOM     33  CD2 LEU A   4     -17.870  -0.422  20.870  0.00  0.00    +0.000 C 
ATOM     34  CD1 LEU A   4     -18.706   0.961  18.992  0.00  0.00    +0.000 C 
ENDBRANCH  31  32
ENDBRANCH  23  31
ENDBRANCH  21  23
ENDBRANCH   1  19
BRANCH   1  35
ATOM     35  CB  VAL A   3     -10.630   2.158  19.952  0.00  0.00    +0.027 C 
ATOM     36  CG2 VAL A   3      -9.535   3.198  19.661  0.00  0.00    +0.002 C 
ATOM     37  CG1 VAL A   3     -10.764   1.207  18.744  0.00  0.00    +0.002 C 
ENDBRANCH   1  35
TORSDOF 15
REMARK  Name = ../refined-set-2016/1bnw/1bnw_pocket.pdb
REMARK  149 active torsions:
REMARK  status: ('A' for Active; 'I' for Inactive)
REMARK    1  A    between atoms: _1  and  _3
REMARK    2  A    between atoms: _3  and  _4
REMARK    3  A    between atoms: _3  and  _6
REMARK    4  A    between atoms: _6  and  _7
REMARK    5  A    between atoms: _17  and  _19
REMARK    6  A    between atoms: _19  and  _20
REMARK    7  A    between atoms: _19  and  _22
REMARK    8  A    between atoms: _22  and  _23
REMARK    9  A    between atoms: _28  and  _29
REMARK   10  A    between atoms: _31  and  _33
REMARK   11  A    between atoms: _33  and  _34
REMARK   12  A    between atoms: _33  and  _36
REMARK   13  A    between atoms: _36  and  _37
REMARK   14  A    between atoms: _40  and  _41
REMARK   15  A    between atoms: _46  and  _48
REMARK   16  A    between atoms: _48  and  _49
REMARK   17  A    between atoms: _48  and  _51
REMARK   18  A    between atoms: _51  and  _52
REMARK   19  A    between atoms: _57  and  _59
REMARK   20  A    between atoms: _59  and  _60
REMARK   21  A    between atoms: _63  and  _65
REMARK   22  A    between atoms: _65  and  _66
REMARK   23  A    between atoms: _65  and  _68
REMARK   24  A    between atoms: _68  and  _69
REMARK   25  A    between atoms: _74  and  _76
REMARK   26  A    between atoms: _76  and  _77
REMARK   27  A    between atoms: _76  and  _79
REMARK   28  A    between atoms: _79  and  _80
REMARK   29  A    between atoms: _83  and  _85
REMARK   30  A    between atoms: _85  and  _86
REMARK   31  A    between atoms: _85  and  _88
REMARK   32  A    between atoms: _88  and  _89
REMARK   33  A    between atoms: _89  and  _90
REMARK   34  A    between atoms: _95  and  _97
REMARK   35  A    between atoms: _97  and  _98
REMARK   36  A    between atoms: _97  and  _100
REMARK   37  A    between atoms: _100  and  _101
REMARK   38  A    between atoms: _107  and  _109
REMARK   39  A    between atoms: _120  and  _123
REMARK   40  A    between atoms: _123  and  _124
REMARK   41  A    between atoms: _132  and  _133
REMARK   42  A    between atoms: _141  and  _143
REMARK   43  A    between atoms: _143  and  _144
REMARK   44  A    between atoms: _143  and  _146
REMARK   45  A    between atoms: _146  and  _147
REMARK   46  A    between atoms: _147  and  _148
REMARK   47  A    between atoms: _151  and  _153
REMARK   48  A    between atoms: _153  and  _154
REMARK   49  A    between atoms: _153  and  _156
REMARK   50  A    between atoms: _156  and  _157
REMARK   51  A    between atoms: _162  and  _164
REMARK   52  A    between atoms: _164  and  _165
REMARK   53  A    between atoms: _164  and  _167
REMARK   54  A    between atoms: _167  and  _168
REMARK   55  A    between atoms: _168  and  _169
REMARK   56  A    between atoms: _172  and  _174
REMARK   57  A    between atoms: _174  and  _175
REMARK   58  A    between atoms: _174  and  _177
REMARK   59  A    between atoms: _177  and  _178
REMARK   60  A    between atoms: _181  and  _183
REMARK   61  A    between atoms: _183  and  _184
REMARK   62  A    between atoms: _183  and  _186
REMARK   63  A    between atoms: _186  and  _187
REMARK   64  A    between atoms: _188  and  ZN_424
REMARK   65  A    between atoms: _192  and  _194
REMARK   66  A    between atoms: _194  and  _195
REMARK   67  A    between atoms: _194  and  _197
REMARK   68  A    between atoms: _197  and  _198
REMARK   69  A    between atoms: _201  and  _203
REMARK   70  A    between atoms: _203  and  _204
REMARK   71  A    between atoms: _203  and  _206
REMARK   72  A    between atoms: _209  and  _211
REMARK   73  A    between atoms: _211  and  _212
REMARK   74  A    between atoms: _211  and  _214
REMARK   75  A    between atoms: _214  and  _215
REMARK   76  A    between atoms: _220  and  _222
REMARK   77  A    between atoms: _222  and  _223
REMARK   78  A    between atoms: _222  and  _225
REMARK   79  A    between atoms: _225  and  _226
REMARK   80  A    between atoms: _236  and  _238
REMARK   81  A    between atoms: _238  and  _239
REMARK   82  A    between atoms: _238  and  _241
REMARK   83  A    between atoms: _241  and  _242
REMARK   84  A    between atoms: _248  and  _250
REMARK   85  A    between atoms: _250  and  _251
REMARK   86  A    between atoms: _253  and  _255
REMARK   87  A    between atoms: _255  and  _256
REMARK   88  A    between atoms: _255  and  _258
REMARK   89  A    between atoms: _261  and  _263
REMARK   90  A    between atoms: _263  and  _264
REMARK   91  A    between atoms: _263  and  _266
REMARK   92  A    between atoms: _266  and  _267
REMARK   93  A    between atoms: _270  and  _272
REMARK   94  A    between atoms: _272  and  _273
REMARK   95  A    between atoms: _276  and  _278
REMARK   96  A    between atoms: _278  and  _279
REMARK   97  A    between atoms: _278  and  _281
REMARK   98  A    between atoms: _284  and  _286
REMARK   99  A    between atoms: _286  and  _287
REMARK  100  A    between atoms: _286  and  _289
REMARK  101  A    between atoms: _289  and  _290
REMARK  102  A    between atoms: _293  and  _295
REMARK  103  A    between atoms: _295  and  _296
REMARK  104  A    between atoms: _298  and  _300
REMARK  105  A    between atoms: _300  and  _301
REMARK  106  A    between atoms: _300  and  _303
REMARK  107  A    between atoms: _303  and  _304
REMARK  108  A    between atoms: _306  and  _308
REMARK  109  A    between atoms: _308  and  _309
REMARK  110  A    between atoms: _308  and  _311
REMARK  111  A    between atoms: _311  and  _312
REMARK  112  A    between atoms: _315  and  _317
REMARK  113  A    between atoms: _317  and  _318
REMARK  114  A    between atoms: _317  and  _320
REMARK  115  A    between atoms: _320  and  _321
REMARK  116  A    between atoms: _324  and  _326
REMARK  117  A    between atoms: _326  and  _327
REMARK  118  A    between atoms: _326  and  _329
REMARK  119  A    between atoms: _329  and  _330
REMARK  120  A    between atoms: _334  and  _335
REMARK  121  A    between atoms: _341  and  _342
REMARK  122  A    between atoms: _347  and  _349
REMARK  123  A    between atoms: _349  and  _350
REMARK  124  A    between atoms: _349  and  _352
REMARK  125  A    between atoms: _352  and  _353
REMARK  126  A    between atoms: _356  and  _358
REMARK  127  A    between atoms: _358  and  _359
REMARK  128  A    between atoms: _358  and  _361
REMARK  129  A    between atoms: _361  and  _362
REMARK  130  A    between atoms: _365  and  _367
REMARK  131  A    between atoms: _367  and  _368
REMARK  132  A    between atoms: _367  and  _370
REMARK  133  A    between atoms: _372  and  _374
REMARK  134  A    between atoms: _374  and  _375
REMARK  135  A    between atoms: _374  and  _377
REMARK  136  A    between atoms: _380  and  _382
REMARK  137  A    between atoms: _382  and  _383
REMARK  138  A    between atoms: _382  and  _385
REMARK  139  A    between atoms: _385  and  _386
REMARK  140  A    between atoms: _396  and  _398
REMARK  141  A    between atoms: _398  and  _399
REMARK  142  A    between atoms: _398  and  _401
REMARK  143  A    between atoms: _401  and  _402
REMARK  144  A    between atoms: _407  and  _409
REMARK  145  A    between atoms: _409  and  _410
REMARK  146  A    between atoms: _409  and  _412
REMARK  147  A    between atoms: _412  and  _413
REMARK  148  A    between atoms: _413  and  _414
REMARK  149  A    between atoms: _414  and  _415
REMARK                            x       y       z     vdW  Elec       q    Type
REMARK                         _______ _______ _______ _____ _____    ______ ____
ROOT
ATOM      1  C   THR A   4       0.982   1.300  16.519  0.00  0.00    +0.246 C 
ATOM      2  O   THR A   4       0.462   2.209  17.212  0.00  0.00    -0.273 OA
ATOM      3  N   PRO A   5       2.258   1.454  16.111  0.00  0.00    -0.272 N 
ATOM      4  CA  PRO A   5       2.983   2.697  16.220  0.00  0.00    +0.152 C 
ATOM      5  CB  PRO A   5       4.200   2.446  15.400  0.00  0.00    +0.031 C 
ATOM      6  CG  PRO A   5       4.498   1.013  15.741  0.00  0.00    +0.024 C 
ATOM      7  CD  PRO A   5       3.120   0.422  15.570  0.00  0.00    +0.094 C 
ENDROOT
BRANCH   4   8
ATOM      8  C   PRO A   5       2.103   3.832  15.732  0.00  0.00    +0.244 C 
ATOM      9  N   PRO A   6       2.100   5.045  16.279  0.00  0.00    -0.272 N 
ATOM     10  CA  PRO A   6       3.003   5.473  17.340  0.00  0.00    +0.152 C 
ATOM     11  CB  PRO A   6       2.998   6.989  17.119  0.00  0.00    +0.031 C 
ATOM     12  CG  PRO A   6       1.594   7.319  16.640  0.00  0.00    +0.024 C 
ATOM     13  CD  PRO A   6       1.200   6.106  15.800  0.00  0.00    +0.094 C 
ATOM     14  O   PRO A   5       1.319   3.598  14.809  0.00  0.00    -0.273 OA
BRANCH  10  15
ATOM     15  C   PRO A   6       2.724   5.001  18.785  0.00  0.00    +0.241 C 
ATOM     16  O   PRO A   6       3.449   5.387  19.699  0.00  0.00    -0.273 OA
ATOM     17  N   LEU A   7       1.731   4.119  19.021  0.00  0.00    -0.297 N 
ATOM     18  H   LEU A   7       1.146   3.830  18.211  0.00  0.00    +0.150 HD
BRANCH  17  19
ATOM     19  CA  LEU A   7       1.410   3.534  20.331  0.00  0.00    +0.149 C 
BRANCH  19  20
ATOM     20  C   LEU A   7       1.098   4.537  21.452  0.00  0.00    +0.241 C 
ATOM     21  O   LEU A   7       1.289   4.291  22.643  0.00  0.00    -0.273 OA
ATOM     22  N   LEU A   8       0.487   5.660  21.062  0.00  0.00    -0.298 N 
ATOM     23  H   LEU A   8       0.256   5.770  20.054  0.00  0.00    +0.150 HD
BRANCH  22  24
ATOM     24  CA  LEU A   8       0.127   6.738  21.972  0.00  0.00    +0.137 C 
BRANCH  24  25
ATOM     25  C   LEU A   8      -0.927   6.336  22.988  0.00  0.00    +0.227 C 
ATOM     26  O   LEU A   8      -1.893   5.630  22.664  0.00  0.00    -0.286 OA
ENDBRANCH  24  25
BRANCH  24  27
ATOM     27  CB  LEU A   8      -0.361   7.912  21.151  0.00  0.00    +0.028 C 
BRANCH  27  28
ATOM     28  CG  LEU A   8       0.698   8.435  20.193  0.00  0.00    +0.002 C 
ATOM     29  CD2 LEU A   8       1.837   9.053  20.973  0.00  0.00    +0.000 C 
ATOM     30  CD1 LEU A   8       0.075   9.462  19.276  0.00  0.00    +0.000 C 
ENDBRANCH  27  28
ENDBRANCH  24  27
ENDBRANCH  22  24
ENDBRANCH  19  20
BRANCH  19  31
ATOM     31  CB  LEU A   7       2.563   2.599  20.766  0.00  0.00    +0.029 C 
BRANCH  31  32
ATOM     32  CG  LEU A   7       2.922   1.451  19.796  0.00  0.00    +0.002 C 
ATOM     33  CD2 LEU A   7       4.287   0.905  20.090  0.00  0.00    +0.000 C 
ATOM     34  CD1 LEU A   7       1.895   0.343  19.917  0.00  0.00    +0.000 C 
ENDBRANCH  31  32
ENDBRANCH  19  31
ENDBRANCH  17  19
ENDBRANCH  10  15
ENDBRANCH   4   8
BRANCH   1  35
ATOM     35  CA  THR A   4       0.161   0.036  16.220  0.00  0.00    +0.176 C 
BRANCH  35  38
ATOM     36  C   THR A   3      -1.030  -1.070  18.053  0.00  0.00    +0.243 C 
ATOM     37  O   THR A   3      -0.415  -2.130  17.886  0.00  0.00    -0.273 OA
ATOM     38  N   THR A   4      -0.872  -0.002  17.242  0.00  0.00    -0.295 N 
ATOM     39  H   THR A   4      -1.506   0.815  17.351  0.00  0.00    +0.150 HD
BRANCH  36  40
ATOM     40  CA  THR A   3      -2.061  -0.972  19.155  0.00  0.00    +0.176 C 
BRANCH  40  43
ATOM     41  C   LEU A   2      -2.410   1.233  19.937  0.00  0.00    +0.241 C 
ATOM     42  O   LEU A   2      -1.397   1.111  20.635  0.00  0.00    -0.273 OA
ATOM     43  N   THR A   3      -2.795   0.262  19.131  0.00  0.00    -0.295 N 
ATOM     44  H   THR A   3      -3.608   0.387  18.495  0.00  0.00    +0.150 HD
BRANCH  41  45
ATOM     45  CA  LEU A   2      -3.215   2.526  19.967  0.00  0.00    +0.149 C 
BRANCH  45  48
ATOM     46  C   SER A   1      -3.651   2.511  22.375  0.00  0.00    +0.241 C 
ATOM     47  O   SER A   1      -4.562   1.678  22.273  0.00  0.00    -0.274 OA
ATOM     48  N   LEU A   2      -3.028   3.025  21.316  0.00  0.00    -0.297 N 
ATOM     49  H   LEU A   2      -2.376   3.822  21.463  0.00  0.00    +0.150 HD
BRANCH  46  50
ATOM     50  CA  SER A   1      -3.145   2.952  23.757  0.00  0.00    +0.174 C 
BRANCH  50  51
ATOM     51  N   SER A   1      -3.896   2.270  24.811  0.00  0.00    -0.236 NA
ATOM     52  H   SER A   1      -4.072   1.251  24.704  0.00  0.00    +0.142 HD
ENDBRANCH  50  51
BRANCH  50  53
ATOM     53  CB  SER A   1      -1.672   2.572  23.881  0.00  0.00    +0.163 C 
BRANCH  53  54
ATOM     54  OG  SER A   1      -1.478   1.159  23.705  0.00  0.00    -0.380 OA
ATOM     55  H   SER A   1      -1.797   0.893  22.806  0.00  0.00    +0.211 HD
ENDBRANCH  53  54
ENDBRANCH  50  53
ENDBRANCH  46  50
ENDBRANCH  45  48
BRANCH  45  56
ATOM     56  CB  LEU A   2      -2.620   3.432  18.933  0.00  0.00    +0.029 C 
BRANCH  56  57
ATOM     57  CG  LEU A   2      -3.121   4.853  18.871  0.00  0.00    +0.002 C 
ATOM     58  CD2 LEU A   2      -4.596   4.847  18.525  0.00  0.00    +0.000 C 
ATOM     59  CD1 LEU A   2      -2.240   5.626  17.904  0.00  0.00    +0.000 C 
ENDBRANCH  56  57
ENDBRANCH  45  56
ENDBRANCH  41  45
ENDBRANCH  40  43
BRANCH  40  60
ATOM     60  CB  THR A   3      -3.069  -2.097  19.080  0.00  0.00    +0.137 C 
ATOM     61  CG2 THR A   3      -4.126  -2.036  20.201  0.00  0.00    +0.034 C 
BRANCH  60  62
ATOM     62  OG1 THR A   3      -3.684  -1.985  17.815  0.00  0.00    -0.382 OA
ATOM     63  HG1 THR A   3      -4.358  -2.703  17.712  0.00  0.00    +0.210 HD
ENDBRANCH  60  62
ENDBRANCH  40  60
ENDBRANCH  36  40
ENDBRANCH  35  38
BRANCH  35  64
ATOM     64  CB  THR A   4      -0.463   0.100  14.791  0.00  0.00    +0.137 C 
ATOM     65  CG2 THR A   4      -1.547  -0.951  14.556  0.00  0.00    +0.034 C 
BRANCH  64  66
ATOM     66  OG1 THR A   4      -1.043   1.383  14.638  0.00  0.00    -0.382 OA
ATOM     67  HG1 THR A   4      -0.343   2.075  14.742  0.00  0.00    +0.210 HD
ENDBRANCH  64  66
ENDBRANCH  35  64
ENDBRANCH   1  35
TORSDOF 26
REMARK  Name = ../refined-set-2016/1bnw/1bnw_pocket.pdb
REMARK  149 active torsions:
REMARK  status: ('A' for Active; 'I' for Inactive)
REMARK    1  A    between atoms: _1  and  _3
REMARK    2  A    between atoms: _3  and  _4
REMARK    3  A    between atoms: _3  and  _6
REMARK    4  A    between atoms: _6  and  _7
REMARK    5  A    between atoms: _17  and  _19
REMARK    6  A    between atoms: _19  and  _20
REMARK    7  A    between atoms: _19  and  _22
REMARK    8  A    between atoms: _22  and  _23
REMARK    9  A    between atoms: _28  and  _29
REMARK   10  A    between atoms: _31  and  _33
REMARK   11  A    between atoms: _33  and  _34
REMARK   12  A    between atoms: _33  and  _36
REMARK   13  A    between atoms: _36  and  _37
REMARK   14  A    between atoms: _40  and  _41
REMARK   15  A    between atoms: _46  and  _48
REMARK   16  A    between atoms: _48  and  _49
REMARK   17  A    between atoms: _48  and  _51
REMARK   18  A    between atoms: _51  and  _52
REMARK   19  A    between atoms: _57  and  _59
REMARK   20  A    between atoms: _59  and  _60
REMARK   21  A    between atoms: _63  and  _65
REMARK   22  A    between atoms: _65  and  _66
REMARK   23  A    between atoms: _65  and  _68
REMARK   24  A    between atoms: _68  and  _69
REMARK   25  A    between atoms: _74  and  _76
REMARK   26  A    between atoms: _76  and  _77
REMARK   27  A    between atoms: _76  and  _79
REMARK   28  A    between atoms: _79  and  _80
REMARK   29  A    between atoms: _83  and  _85
REMARK   30  A    between atoms: _85  and  _86
REMARK   31  A    between atoms: _85  and  _88
REMARK   32  A    between atoms: _88  and  _89
REMARK   33  A    between atoms: _89  and  _90
REMARK   34  A    between atoms: _95  and  _97
REMARK   35  A    between atoms: _97  and  _98
REMARK   36  A    between atoms: _97  and  _100
REMARK   37  A    between atoms: _100  and  _101
REMARK   38  A    between atoms: _107  and  _109
REMARK   39  A    between atoms: _120  and  _123
REMARK   40  A    between atoms: _123  and  _124
REMARK   41  A    between atoms: _132  and  _133
REMARK   42  A    between atoms: _141  and  _143
REMARK   43  A    between atoms: _143  and  _144
REMARK   44  A    between atoms: _143  and  _146
REMARK   45  A    between atoms: _146  and  _147
REMARK   46  A    between atoms: _147  and  _148
REMARK   47  A    between atoms: _151  and  _153
REMARK   48  A    between atoms: _153  and  _154
REMARK   49  A    between atoms: _153  and  _156
REMARK   50  A    between atoms: _156  and  _157
REMARK   51  A    between atoms: _162  and  _164
REMARK   52  A    between atoms: _164  and  _165
REMARK   53  A    between atoms: _164  and  _167
REMARK   54  A    between atoms: _167  and  _168
REMARK   55  A    between atoms: _168  and  _169
REMARK   56  A    between atoms: _172  and  _174
REMARK   57  A    between atoms: _174  and  _175
REMARK   58  A    between atoms: _174  and  _177
REMARK   59  A    between atoms: _177  and  _178
REMARK   60  A    between atoms: _181  and  _183
REMARK   61  A    between atoms: _183  and  _184
REMARK   62  A    between atoms: _183  and  _186
REMARK   63  A    between atoms: _186  and  _187
REMARK   64  A    between atoms: _188  and  ZN_424
REMARK   65  A    between atoms: _192  and  _194
REMARK   66  A    between atoms: _194  and  _195
REMARK   67  A    between atoms: _194  and  _197
REMARK   68  A    between atoms: _197  and  _198
REMARK   69  A    between atoms: _201  and  _203
REMARK   70  A    between atoms: _203  and  _204
REMARK   71  A    between atoms: _203  and  _206
REMARK   72  A    between atoms: _209  and  _211
REMARK   73  A    between atoms: _211  and  _212
REMARK   74  A    between atoms: _211  and  _214
REMARK   75  A    between atoms: _214  and  _215
REMARK   76  A    between atoms: _220  and  _222
REMARK   77  A    between atoms: _222  and  _223
REMARK   78  A    between atoms: _222  and  _225
REMARK   79  A    between atoms: _225  and  _226
REMARK   80  A    between atoms: _236  and  _238
REMARK   81  A    between atoms: _238  and  _239
REMARK   82  A    between atoms: _238  and  _241
REMARK   83  A    between atoms: _241  and  _242
REMARK   84  A    between atoms: _248  and  _250
REMARK   85  A    between atoms: _250  and  _251
REMARK   86  A    between atoms: _253  and  _255
REMARK   87  A    between atoms: _255  and  _256
REMARK   88  A    between atoms: _255  and  _258
REMARK   89  A    between atoms: _261  and  _263
REMARK   90  A    between atoms: _263  and  _264
REMARK   91  A    between atoms: _263  and  _266
REMARK   92  A    between atoms: _266  and  _267
REMARK   93  A    between atoms: _270  and  _272
REMARK   94  A    between atoms: _272  and  _273
REMARK   95  A    between atoms: _276  and  _278
REMARK   96  A    between atoms: _278  and  _279
REMARK   97  A    between atoms: _278  and  _281
REMARK   98  A    between atoms: _284  and  _286
REMARK   99  A    between atoms: _286  and  _287
REMARK  100  A    between atoms: _286  and  _289
REMARK  101  A    between atoms: _289  and  _290
REMARK  102  A    between atoms: _293  and  _295
REMARK  103  A    between atoms: _295  and  _296
REMARK  104  A    between atoms: _298  and  _300
REMARK  105  A    between atoms: _300  and  _301
REMARK  106  A    between atoms: _300  and  _303
REMARK  107  A    between atoms: _303  and  _304
REMARK  108  A    between atoms: _306  and  _308
REMARK  109  A    between atoms: _308  and  _309
REMARK  110  A    between atoms: _308  and  _311
REMARK  111  A    between atoms: _311  and  _312
REMARK  112  A    between atoms: _315  and  _317
REMARK  113  A    between atoms: _317  and  _318
REMARK  114  A    between atoms: _317  and  _320
REMARK  115  A    between atoms: _320  and  _321
REMARK  116  A    between atoms: _324  and  _326
REMARK  117  A    between atoms: _326  and  _327
REMARK  118  A    between atoms: _326  and  _329
REMARK  119  A    between atoms: _329  and  _330
REMARK  120  A    between atoms: _334  and  _335
REMARK  121  A    between atoms: _341  and  _342
REMARK  122  A    between atoms: _347  and  _349
REMARK  123  A    between atoms: _349  and  _350
REMARK  124  A    between atoms: _349  and  _352
REMARK  125  A    between atoms: _352  and  _353
REMARK  126  A    between atoms: _356  and  _358
REMARK  127  A    between atoms: _358  and  _359
REMARK  128  A    between atoms: _358  and  _361
REMARK  129  A    between atoms: _361  and  _362
REMARK  130  A    between atoms: _365  and  _367
REMARK  131  A    between atoms: _367  and  _368
REMARK  132  A    between atoms: _367  and  _370
REMARK  133  A    between atoms: _372  and  _374
REMARK  134  A    between atoms: _374  and  _375
REMARK  135  A    between atoms: _374  and  _377
REMARK  136  A    between atoms: _380  and  _382
REMARK  137  A    between atoms: _382  and  _383
REMARK  138  A    between atoms: _382  and  _385
REMARK  139  A    between atoms: _385  and  _386
REMARK  140  A    between atoms: _396  and  _398
REMARK  141  A    between atoms: _398  and  _399
REMARK  142  A    between atoms: _398  and  _401
REMARK  143  A    between atoms: _401  and  _402
REMARK  144  A    between atoms: _407  and  _409
REMARK  145  A    between atoms: _409  and  _410
REMARK  146  A    between atoms: _409  and  _412
REMARK  147  A    between atoms: _412  and  _413
REMARK  148  A    between atoms: _413  and  _414
REMARK  149  A    between atoms: _414  and  _415
REMARK                            x       y       z     vdW  Elec       q    Type
REMARK                         _______ _______ _______ _____ _____    ______ ____
ROOT
ATOM      1  C   CYS A   1      -6.072   7.828  24.363  0.00  0.00    +0.239 C 
ATOM      2  N   VAL A   2      -6.167   6.502  24.571  0.00  0.00    -0.298 N 
ATOM      3  H   VAL A   2      -5.348   5.995  24.963  0.00  0.00    +0.150 HD
ATOM      4  O   CYS A   1      -7.065   8.547  24.211  0.00  0.00    -0.274 OA
ENDROOT
BRANCH   1   5
ATOM      5  CA  CYS A   1      -4.697   8.465  24.294  0.00  0.00    +0.156 C 
BRANCH   5   6
ATOM      6  N   CYS A   1      -3.622   7.482  24.427  0.00  0.00    -0.237 NA
ATOM      7  H   CYS A   1      -3.504   6.782  23.667  0.00  0.00    +0.142 HD
ENDBRANCH   5   6
BRANCH   5   8
ATOM      8  CB  CYS A   1      -4.556   9.170  22.928  0.00  0.00    +0.095 C 
ATOM      9  SG  CYS A   1      -2.890   9.847  22.576  0.00  0.00    -0.080 S 
ENDBRANCH   5   8
ENDBRANCH   1   5
BRANCH   2  10
ATOM     10  CA  VAL A   2      -7.391   5.745  24.263  0.00  0.00    +0.137 C 
BRANCH  10  11
ATOM     11  CB  VAL A   2      -7.079   4.551  23.279  0.00  0.00    +0.026 C 
ATOM     12  CG2 VAL A   2      -8.389   3.952  22.826  0.00  0.00    +0.002 C 
ATOM     13  CG1 VAL A   2      -6.277   4.974  22.064  0.00  0.00    +0.002 C 
ENDBRANCH  10  11
BRANCH  10  14
ATOM     14  C   VAL A   2      -8.161   5.148  25.425  0.00  0.00    +0.227 C 
ATOM     15  O   VAL A   2      -7.572   4.468  26.267  0.00  0.00    -0.286 OA
ENDBRANCH  10  14
ENDBRANCH   2  10
TORSDOF 6
REMARK  Name = ../refined-set-2016/1bnw/1bnw_pocket.pdb
REMARK  149 active torsions:
REMARK  status: ('A' for Active; 'I' for Inactive)
REMARK    1  A    between atoms: _1  and  _3
REMARK    2  A    between atoms: _3  and  _4
REMARK    3  A    between atoms: _3  and  _6
REMARK    4  A    between atoms: _6  and  _7
REMARK    5  A    between atoms: _17  and  _19
REMARK    6  A    between atoms: _19  and  _20
REMARK    7  A    between atoms: _19  and  _22
REMARK    8  A    between atoms: _22  and  _23
REMARK    9  A    between atoms: _28  and  _29
REMARK   10  A    between atoms: _31  and  _33
REMARK   11  A    between atoms: _33  and  _34
REMARK   12  A    between atoms: _33  and  _36
REMARK   13  A    between atoms: _36  and  _37
REMARK   14  A    between atoms: _40  and  _41
REMARK   15  A    between atoms: _46  and  _48
REMARK   16  A    between atoms: _48  and  _49
REMARK   17  A    between atoms: _48  and  _51
REMARK   18  A    between atoms: _51  and  _52
REMARK   19  A    between atoms: _57  and  _59
REMARK   20  A    between atoms: _59  and  _60
REMARK   21  A    between atoms: _63  and  _65
REMARK   22  A    between atoms: _65  and  _66
REMARK   23  A    between atoms: _65  and  _68
REMARK   24  A    between atoms: _68  and  _69
REMARK   25  A    between atoms: _74  and  _76
REMARK   26  A    between atoms: _76  and  _77
REMARK   27  A    between atoms: _76  and  _79
REMARK   28  A    between atoms: _79  and  _80
REMARK   29  A    between atoms: _83  and  _85
REMARK   30  A    between atoms: _85  and  _86
REMARK   31  A    between atoms: _85  and  _88
REMARK   32  A    between atoms: _88  and  _89
REMARK   33  A    between atoms: _89  and  _90
REMARK   34  A    between atoms: _95  and  _97
REMARK   35  A    between atoms: _97  and  _98
REMARK   36  A    between atoms: _97  and  _100
REMARK   37  A    between atoms: _100  and  _101
REMARK   38  A    between atoms: _107  and  _109
REMARK   39  A    between atoms: _120  and  _123
REMARK   40  A    between atoms: _123  and  _124
REMARK   41  A    between atoms: _132  and  _133
REMARK   42  A    between atoms: _141  and  _143
REMARK   43  A    between atoms: _143  and  _144
REMARK   44  A    between atoms: _143  and  _146
REMARK   45  A    between atoms: _146  and  _147
REMARK   46  A    between atoms: _147  and  _148
REMARK   47  A    between atoms: _151  and  _153
REMARK   48  A    between atoms: _153  and  _154
REMARK   49  A    between atoms: _153  and  _156
REMARK   50  A    between atoms: _156  and  _157
REMARK   51  A    between atoms: _162  and  _164
REMARK   52  A    between atoms: _164  and  _165
REMARK   53  A    between atoms: _164  and  _167
REMARK   54  A    between atoms: _167  and  _168
REMARK   55  A    between atoms: _168  and  _169
REMARK   56  A    between atoms: _172  and  _174
REMARK   57  A    between atoms: _174  and  _175
REMARK   58  A    between atoms: _174  and  _177
REMARK   59  A    between atoms: _177  and  _178
REMARK   60  A    between atoms: _181  and  _183
REMARK   61  A    between atoms: _183  and  _184
REMARK   62  A    between atoms: _183  and  _186
REMARK   63  A    between atoms: _186  and  _187
REMARK   64  A    between atoms: _188  and  ZN_424
REMARK   65  A    between atoms: _192  and  _194
REMARK   66  A    between atoms: _194  and  _195
REMARK   67  A    between atoms: _194  and  _197
REMARK   68  A    between atoms: _197  and  _198
REMARK   69  A    between atoms: _201  and  _203
REMARK   70  A    between atoms: _203  and  _204
REMARK   71  A    between atoms: _203  and  _206
REMARK   72  A    between atoms: _209  and  _211
REMARK   73  A    between atoms: _211  and  _212
REMARK   74  A    between atoms: _211  and  _214
REMARK   75  A    between atoms: _214  and  _215
REMARK   76  A    between atoms: _220  and  _222
REMARK   77  A    between atoms: _222  and  _223
REMARK   78  A    between atoms: _222  and  _225
REMARK   79  A    between atoms: _225  and  _226
REMARK   80  A    between atoms: _236  and  _238
REMARK   81  A    between atoms: _238  and  _239
REMARK   82  A    between atoms: _238  and  _241
REMARK   83  A    between atoms: _241  and  _242
REMARK   84  A    between atoms: _248  and  _250
REMARK   85  A    between atoms: _250  and  _251
REMARK   86  A    between atoms: _253  and  _255
REMARK   87  A    between atoms: _255  and  _256
REMARK   88  A    between atoms: _255  and  _258
REMARK   89  A    between atoms: _261  and  _263
REMARK   90  A    between atoms: _263  and  _264
REMARK   91  A    between atoms: _263  and  _266
REMARK   92  A    between atoms: _266  and  _267
REMARK   93  A    between atoms: _270  and  _272
REMARK   94  A    between atoms: _272  and  _273
REMARK   95  A    between atoms: _276  and  _278
REMARK   96  A    between atoms: _278  and  _279
REMARK   97  A    between atoms: _278  and  _281
REMARK   98  A    between atoms: _284  and  _286
REMARK   99  A    between atoms: _286  and  _287
REMARK  100  A    between atoms: _286  and  _289
REMARK  101  A    between atoms: _289  and  _290
REMARK  102  A    between atoms: _293  and  _295
REMARK  103  A    between atoms: _295  and  _296
REMARK  104  A    between atoms: _298  and  _300
REMARK  105  A    between atoms: _300  and  _301
REMARK  106  A    between atoms: _300  and  _303
REMARK  107  A    between atoms: _303  and  _304
REMARK  108  A    between atoms: _306  and  _308
REMARK  109  A    between atoms: _308  and  _309
REMARK  110  A    between atoms: _308  and  _311
REMARK  111  A    between atoms: _311  and  _312
REMARK  112  A    between atoms: _315  and  _317
REMARK  113  A    between atoms: _317  and  _318
REMARK  114  A    between atoms: _317  and  _320
REMARK  115  A    between atoms: _320  and  _321
REMARK  116  A    between atoms: _324  and  _326
REMARK  117  A    between atoms: _326  and  _327
REMARK  118  A    between atoms: _326  and  _329
REMARK  119  A    between atoms: _329  and  _330
REMARK  120  A    between atoms: _334  and  _335
REMARK  121  A    between atoms: _341  and  _342
REMARK  122  A    between atoms: _347  and  _349
REMARK  123  A    between atoms: _349  and  _350
REMARK  124  A    between atoms: _349  and  _352
REMARK  125  A    between atoms: _352  and  _353
REMARK  126  A    between atoms: _356  and  _358
REMARK  127  A    between atoms: _358  and  _359
REMARK  128  A    between atoms: _358  and  _361
REMARK  129  A    between atoms: _361  and  _362
REMARK  130  A    between atoms: _365  and  _367
REMARK  131  A    between atoms: _367  and  _368
REMARK  132  A    between atoms: _367  and  _370
REMARK  133  A    between atoms: _372  and  _374
REMARK  134  A    between atoms: _374  and  _375
REMARK  135  A    between atoms: _374  and  _377
REMARK  136  A    between atoms: _380  and  _382
REMARK  137  A    between atoms: _382  and  _383
REMARK  138  A    between atoms: _382  and  _385
REMARK  139  A    between atoms: _385  and  _386
REMARK  140  A    between atoms: _396  and  _398
REMARK  141  A    between atoms: _398  and  _399
REMARK  142  A    between atoms: _398  and  _401
REMARK  143  A    between atoms: _401  and  _402
REMARK  144  A    between atoms: _407  and  _409
REMARK  145  A    between atoms: _409  and  _410
REMARK  146  A    between atoms: _409  and  _412
REMARK  147  A    between atoms: _412  and  _413
REMARK  148  A    between atoms: _413  and  _414
REMARK  149  A    between atoms: _414  and  _415
REMARK                            x       y       z     vdW  Elec       q    Type
REMARK                         _______ _______ _______ _____ _____    ______ ____
ROOT
ATOM      1  CG  TRP A   1      -8.979   0.139  24.255  0.00  0.00    -0.002 A 
ATOM      2  CD1 TRP A   1      -7.750   0.667  24.550  0.00  0.00    +0.068 A 
ATOM      3  NE1 TRP A   1      -7.067   0.547  23.426  0.00  0.00    -0.352 N 
ATOM      4  HE1 TRP A   1      -6.083   0.860  23.299  0.00  0.00    +0.166 HD
ATOM      5  CE2 TRP A   1      -7.810  -0.032  22.470  0.00  0.00    +0.056 A 
ATOM      6  CZ2 TRP A   1      -7.487  -0.357  21.154  0.00  0.00    +0.017 A 
ATOM      7  CH2 TRP A   1      -8.470  -0.958  20.367  0.00  0.00    +0.001 A 
ATOM      8  CZ3 TRP A   1      -9.757  -1.231  20.874  0.00  0.00    +0.000 A 
ATOM      9  CE3 TRP A   1     -10.080  -0.909  22.180  0.00  0.00    +0.001 A 
ATOM     10  CD2 TRP A   1      -9.090  -0.311  22.968  0.00  0.00    +0.013 A 
ENDROOT
BRANCH   1  11
ATOM     11  CB  TRP A   1     -10.086   0.040  25.255  0.00  0.00    +0.053 C 
BRANCH  11  12
ATOM     12  CA  TRP A   1     -11.042   1.168  25.078  0.00  0.00    +0.137 C 
BRANCH  12  13
ATOM     13  N   TRP A   1     -10.575   2.318  25.818  0.00  0.00    -0.239 NA
ATOM     14  H   TRP A   1      -9.987   2.178  26.665  0.00  0.00    +0.142 HD
ENDBRANCH  12  13
BRANCH  12  15
ATOM     15  C   TRP A   1     -12.402   0.718  25.558  0.00  0.00    +0.224 C 
ATOM     16  O   TRP A   1     -12.643   0.644  26.780  0.00  0.00    -0.287 OA
ENDBRANCH  12  15
ENDBRANCH  11  12
ENDBRANCH   1  11
TORSDOF 4
REMARK  Name = ../refined-set-2016/1bnw/1bnw_pocket.pdb
REMARK  149 active torsions:
REMARK  status: ('A' for Active; 'I' for Inactive)
REMARK    1  A    between atoms: _1  and  _3
REMARK    2  A    between atoms: _3  and  _4
REMARK    3  A    between atoms: _3  and  _6
REMARK    4  A    between atoms: _6  and  _7
REMARK    5  A    between atoms: _17  and  _19
REMARK    6  A    between atoms: _19  and  _20
REMARK    7  A    between atoms: _19  and  _22
REMARK    8  A    between atoms: _22  and  _23
REMARK    9  A    between atoms: _28  and  _29
REMARK   10  A    between atoms: _31  and  _33
REMARK   11  A    between atoms: _33  and  _34
REMARK   12  A    between atoms: _33  and  _36
REMARK   13  A    between atoms: _36  and  _37
REMARK   14  A    between atoms: _40  and  _41
REMARK   15  A    between atoms: _46  and  _48
REMARK   16  A    between atoms: _48  and  _49
REMARK   17  A    between atoms: _48  and  _51
REMARK   18  A    between atoms: _51  and  _52
REMARK   19  A    between atoms: _57  and  _59
REMARK   20  A    between atoms: _59  and  _60
REMARK   21  A    between atoms: _63  and  _65
REMARK   22  A    between atoms: _65  and  _66
REMARK   23  A    between atoms: _65  and  _68
REMARK   24  A    between atoms: _68  and  _69
REMARK   25  A    between atoms: _74  and  _76
REMARK   26  A    between atoms: _76  and  _77
REMARK   27  A    between atoms: _76  and  _79
REMARK   28  A    between atoms: _79  and  _80
REMARK   29  A    between atoms: _83  and  _85
REMARK   30  A    between atoms: _85  and  _86
REMARK   31  A    between atoms: _85  and  _88
REMARK   32  A    between atoms: _88  and  _89
REMARK   33  A    between atoms: _89  and  _90
REMARK   34  A    between atoms: _95  and  _97
REMARK   35  A    between atoms: _97  and  _98
REMARK   36  A    between atoms: _97  and  _100
REMARK   37  A    between atoms: _100  and  _101
REMARK   38  A    between atoms: _107  and  _109
REMARK   39  A    between atoms: _120  and  _123
REMARK   40  A    between atoms: _123  and  _124
REMARK   41  A    between atoms: _132  and  _133
REMARK   42  A    between atoms: _141  and  _143
REMARK   43  A    between atoms: _143  and  _144
REMARK   44  A    between atoms: _143  and  _146
REMARK   45  A    between atoms: _146  and  _147
REMARK   46  A    between atoms: _147  and  _148
REMARK   47  A    between atoms: _151  and  _153
REMARK   48  A    between atoms: _153  and  _154
REMARK   49  A    between atoms: _153  and  _156
REMARK   50  A    between atoms: _156  and  _157
REMARK   51  A    between atoms: _162  and  _164
REMARK   52  A    between atoms: _164  and  _165
REMARK   53  A    between atoms: _164  and  _167
REMARK   54  A    between atoms: _167  and  _168
REMARK   55  A    between atoms: _168  and  _169
REMARK   56  A    between atoms: _172  and  _174
REMARK   57  A    between atoms: _174  and  _175
REMARK   58  A    between atoms: _174  and  _177
REMARK   59  A    between atoms: _177  and  _178
REMARK   60  A    between atoms: _181  and  _183
REMARK   61  A    between atoms: _183  and  _184
REMARK   62  A    between atoms: _183  and  _186
REMARK   63  A    between atoms: _186  and  _187
REMARK   64  A    between atoms: _188  and  ZN_424
REMARK   65  A    between atoms: _192  and  _194
REMARK   66  A    between atoms: _194  and  _195
REMARK   67  A    between atoms: _194  and  _197
REMARK   68  A    between atoms: _197  and  _198
REMARK   69  A    between atoms: _201  and  _203
REMARK   70  A    between atoms: _203  and  _204
REMARK   71  A    between atoms: _203  and  _206
REMARK   72  A    between atoms: _209  and  _211
REMARK   73  A    between atoms: _211  and  _212
REMARK   74  A    between atoms: _211  and  _214
REMARK   75  A    between atoms: _214  and  _215
REMARK   76  A    between atoms: _220  and  _222
REMARK   77  A    between atoms: _222  and  _223
REMARK   78  A    between atoms: _222  and  _225
REMARK   79  A    between atoms: _225  and  _226
REMARK   80  A    between atoms: _236  and  _238
REMARK   81  A    between atoms: _238  and  _239
REMARK   82  A    between atoms: _238  and  _241
REMARK   83  A    between atoms: _241  and  _242
REMARK   84  A    between atoms: _248  and  _250
REMARK   85  A    between atoms: _250  and  _251
REMARK   86  A    between atoms: _253  and  _255
REMARK   87  A    between atoms: _255  and  _256
REMARK   88  A    between atoms: _255  and  _258
REMARK   89  A    between atoms: _261  and  _263
REMARK   90  A    between atoms: _263  and  _264
REMARK   91  A    between atoms: _263  and  _266
REMARK   92  A    between atoms: _266  and  _267
REMARK   93  A    between atoms: _270  and  _272
REMARK   94  A    between atoms: _272  and  _273
REMARK   95  A    between atoms: _276  and  _278
REMARK   96  A    between atoms: _278  and  _279
REMARK   97  A    between atoms: _278  and  _281
REMARK   98  A    between atoms: _284  and  _286
REMARK   99  A    between atoms: _286  and  _287
REMARK  100  A    between atoms: _286  and  _289
REMARK  101  A    between atoms: _289  and  _290
REMARK  102  A    between atoms: _293  and  _295
REMARK  103  A    between atoms: _295  and  _296
REMARK  104  A    between atoms: _298  and  _300
REMARK  105  A    between atoms: _300  and  _301
REMARK  106  A    between atoms: _300  and  _303
REMARK  107  A    between atoms: _303  and  _304
REMARK  108  A    between atoms: _306  and  _308
REMARK  109  A    between atoms: _308  and  _309
REMARK  110  A    between atoms: _308  and  _311
REMARK  111  A    between atoms: _311  and  _312
REMARK  112  A    between atoms: _315  and  _317
REMARK  113  A    between atoms: _317  and  _318
REMARK  114  A    between atoms: _317  and  _320
REMARK  115  A    between atoms: _320  and  _321
REMARK  116  A    between atoms: _324  and  _326
REMARK  117  A    between atoms: _326  and  _327
REMARK  118  A    between atoms: _326  and  _329
REMARK  119  A    between atoms: _329  and  _330
REMARK  120  A    between atoms: _334  and  _335
REMARK  121  A    between atoms: _341  and  _342
REMARK  122  A    between atoms: _347  and  _349
REMARK  123  A    between atoms: _349  and  _350
REMARK  124  A    between atoms: _349  and  _352
REMARK  125  A    between atoms: _352  and  _353
REMARK  126  A    between atoms: _356  and  _358
REMARK  127  A    between atoms: _358  and  _359
REMARK  128  A    between atoms: _358  and  _361
REMARK  129  A    between atoms: _361  and  _362
REMARK  130  A    between atoms: _365  and  _367
REMARK  131  A    between atoms: _367  and  _368
REMARK  132  A    between atoms: _367  and  _370
REMARK  133  A    between atoms: _372  and  _374
REMARK  134  A    between atoms: _374  and  _375
REMARK  135  A    between atoms: _374  and  _377
REMARK  136  A    between atoms: _380  and  _382
REMARK  137  A    between atoms: _382  and  _383
REMARK  138  A    between atoms: _382  and  _385
REMARK  139  A    between atoms: _385  and  _386
REMARK  140  A    between atoms: _396  and  _398
REMARK  141  A    between atoms: _398  and  _399
REMARK  142  A    between atoms: _398  and  _401
REMARK  143  A    between atoms: _401  and  _402
REMARK  144  A    between atoms: _407  and  _409
REMARK  145  A    between atoms: _409  and  _410
REMARK  146  A    between atoms: _409  and  _412
REMARK  147  A    between atoms: _412  and  _413
REMARK  148  A    between atoms: _413  and  _414
REMARK  149  A    between atoms: _414  and  _415
REMARK                            x       y       z     vdW  Elec       q    Type
REMARK                         _______ _______ _______ _____ _____    ______ ____
ROOT
ATOM      1  CB  ASN A   1      -2.082  -7.097  10.554  0.00  0.00    +0.110 C 
ENDROOT
BRANCH   1   2
ATOM      2  CG  ASN A   1      -3.564  -7.283  10.341  0.00  0.00    +0.221 C 
ATOM      3  OD1 ASN A   1      -4.146  -8.283  10.792  0.00  0.00    -0.275 OA
ATOM      4  ND2 ASN A   1      -4.208  -6.362   9.633  0.00  0.00    -0.329 N 
ATOM      5 HD21 ASN A   1      -5.225  -6.468   9.444  0.00  0.00    +0.145 HD
ATOM      6 HD22 ASN A   1      -3.695  -5.534   9.267  0.00  0.00    +0.145 HD
ENDBRANCH   1   2
BRANCH   1   7
ATOM      7  CA  ASN A   1      -1.507  -7.948  11.700  0.00  0.00    +0.142 C 
BRANCH   7   8
ATOM      8  N   ASN A   1      -1.863  -9.327  11.468  0.00  0.00    -0.239 NA
ATOM      9  H   ASN A   1      -2.809  -9.573  11.112  0.00  0.00    +0.142 HD
ENDBRANCH   7   8
BRANCH   7  10
ATOM     10  C   ASN A   1      -2.030  -7.520  13.071  0.00  0.00    +0.225 C 
ATOM     11  O   ASN A   1      -2.571  -6.432  13.251  0.00  0.00    -0.287 OA
ENDBRANCH   7  10
ENDBRANCH   1   7
TORSDOF 4
REMARK  Name = ../refined-set-2016/1bnw/1bnw_pocket.pdb
REMARK  149 active torsions:
REMARK  status: ('A' for Active; 'I' for Inactive)
REMARK    1  A    between atoms: _1  and  _3
REMARK    2  A    between atoms: _3  and  _4
REMARK    3  A    between atoms: _3  and  _6
REMARK    4  A    between atoms: _6  and  _7
REMARK    5  A    between atoms: _17  and  _19
REMARK    6  A    between atoms: _19  and  _20
REMARK    7  A    between atoms: _19  and  _22
REMARK    8  A    between atoms: _22  and  _23
REMARK    9  A    between atoms: _28  and  _29
REMARK   10  A    between atoms: _31  and  _33
REMARK   11  A    between atoms: _33  and  _34
REMARK   12  A    between atoms: _33  and  _36
REMARK   13  A    between atoms: _36  and  _37
REMARK   14  A    between atoms: _40  and  _41
REMARK   15  A    between atoms: _46  and  _48
REMARK   16  A    between atoms: _48  and  _49
REMARK   17  A    between atoms: _48  and  _51
REMARK   18  A    between atoms: _51  and  _52
REMARK   19  A    between atoms: _57  and  _59
REMARK   20  A    between atoms: _59  and  _60
REMARK   21  A    between atoms: _63  and  _65
REMARK   22  A    between atoms: _65  and  _66
REMARK   23  A    between atoms: _65  and  _68
REMARK   24  A    between atoms: _68  and  _69
REMARK   25  A    between atoms: _74  and  _76
REMARK   26  A    between atoms: _76  and  _77
REMARK   27  A    between atoms: _76  and  _79
REMARK   28  A    between atoms: _79  and  _80
REMARK   29  A    between atoms: _83  and  _85
REMARK   30  A    between atoms: _85  and  _86
REMARK   31  A    between atoms: _85  and  _88
REMARK   32  A    between atoms: _88  and  _89
REMARK   33  A    between atoms: _89  and  _90
REMARK   34  A    between atoms: _95  and  _97
REMARK   35  A    between atoms: _97  and  _98
REMARK   36  A    between atoms: _97  and  _100
REMARK   37  A    between atoms: _100  and  _101
REMARK   38  A    between atoms: _107  and  _109
REMARK   39  A    between atoms: _120  and  _123
REMARK   40  A    between atoms: _123  and  _124
REMARK   41  A    between atoms: _132  and  _133
REMARK   42  A    between atoms: _141  and  _143
REMARK   43  A    between atoms: _143  and  _144
REMARK   44  A    between atoms: _143  and  _146
REMARK   45  A    between atoms: _146  and  _147
REMARK   46  A    between atoms: _147  and  _148
REMARK   47  A    between atoms: _151  and  _153
REMARK   48  A    between atoms: _153  and  _154
REMARK   49  A    between atoms: _153  and  _156
REMARK   50  A    between atoms: _156  and  _157
REMARK   51  A    between atoms: _162  and  _164
REMARK   52  A    between atoms: _164  and  _165
REMARK   53  A    between atoms: _164  and  _167
REMARK   54  A    between atoms: _167  and  _168
REMARK   55  A    between atoms: _168  and  _169
REMARK   56  A    between atoms: _172  and  _174
REMARK   57  A    between atoms: _174  and  _175
REMARK   58  A    between atoms: _174  and  _177
REMARK   59  A    between atoms: _177  and  _178
REMARK   60  A    between atoms: _181  and  _183
REMARK   61  A    between atoms: _183  and  _184
REMARK   62  A    between atoms: _183  and  _186
REMARK   63  A    between atoms: _186  and  _187
REMARK   64  A    between atoms: _188  and  ZN_424
REMARK   65  A    between atoms: _192  and  _194
REMARK   66  A    between atoms: _194  and  _195
REMARK   67  A    between atoms: _194  and  _197
REMARK   68  A    between atoms: _197  and  _198
REMARK   69  A    between atoms: _201  and  _203
REMARK   70  A    between atoms: _203  and  _204
REMARK   71  A    between atoms: _203  and  _206
REMARK   72  A    between atoms: _209  and  _211
REMARK   73  A    between atoms: _211  and  _212
REMARK   74  A    between atoms: _211  and  _214
REMARK   75  A    between atoms: _214  and  _215
REMARK   76  A    between atoms: _220  and  _222
REMARK   77  A    between atoms: _222  and  _223
REMARK   78  A    between atoms: _222  and  _225
REMARK   79  A    between atoms: _225  and  _226
REMARK   80  A    between atoms: _236  and  _238
REMARK   81  A    between atoms: _238  and  _239
REMARK   82  A    between atoms: _238  and  _241
REMARK   83  A    between atoms: _241  and  _242
REMARK   84  A    between atoms: _248  and  _250
REMARK   85  A    between atoms: _250  and  _251
REMARK   86  A    between atoms: _253  and  _255
REMARK   87  A    between atoms: _255  and  _256
REMARK   88  A    between atoms: _255  and  _258
REMARK   89  A    between atoms: _261  and  _263
REMARK   90  A    between atoms: _263  and  _264
REMARK   91  A    between atoms: _263  and  _266
REMARK   92  A    between atoms: _266  and  _267
REMARK   93  A    between atoms: _270  and  _272
REMARK   94  A    between atoms: _272  and  _273
REMARK   95  A    between atoms: _276  and  _278
REMARK   96  A    between atoms: _278  and  _279
REMARK   97  A    between atoms: _278  and  _281
REMARK   98  A    between atoms: _284  and  _286
REMARK   99  A    between atoms: _286  and  _287
REMARK  100  A    between atoms: _286  and  _289
REMARK  101  A    between atoms: _289  and  _290
REMARK  102  A    between atoms: _293  and  _295
REMARK  103  A    between atoms: _295  and  _296
REMARK  104  A    between atoms: _298  and  _300
REMARK  105  A    between atoms: _300  and  _301
REMARK  106  A    between atoms: _300  and  _303
REMARK  107  A    between atoms: _303  and  _304
REMARK  108  A    between atoms: _306  and  _308
REMARK  109  A    between atoms: _308  and  _309
REMARK  110  A    between atoms: _308  and  _311
REMARK  111  A    between atoms: _311  and  _312
REMARK  112  A    between atoms: _315  and  _317
REMARK  113  A    between atoms: _317  and  _318
REMARK  114  A    between atoms: _317  and  _320
REMARK  115  A    between atoms: _320  and  _321
REMARK  116  A    between atoms: _324  and  _326
REMARK  117  A    between atoms: _326  and  _327
REMARK  118  A    between atoms: _326  and  _329
REMARK  119  A    between atoms: _329  and  _330
REMARK  120  A    between atoms: _334  and  _335
REMARK  121  A    between atoms: _341  and  _342
REMARK  122  A    between atoms: _347  and  _349
REMARK  123  A    between atoms: _349  and  _350
REMARK  124  A    between atoms: _349  and  _352
REMARK  125  A    between atoms: _352  and  _353
REMARK  126  A    between atoms: _356  and  _358
REMARK  127  A    between atoms: _358  and  _359
REMARK  128  A    between atoms: _358  and  _361
REMARK  129  A    between atoms: _361  and  _362
REMARK  130  A    between atoms: _365  and  _367
REMARK  131  A    between atoms: _367  and  _368
REMARK  132  A    between atoms: _367  and  _370
REMARK  133  A    between atoms: _372  and  _374
REMARK  134  A    between atoms: _374  and  _375
REMARK  135  A    between atoms: _374  and  _377
REMARK  136  A    between atoms: _380  and  _382
REMARK  137  A    between atoms: _382  and  _383
REMARK  138  A    between atoms: _382  and  _385
REMARK  139  A    between atoms: _385  and  _386
REMARK  140  A    between atoms: _396  and  _398
REMARK  141  A    between atoms: _398  and  _399
REMARK  142  A    between atoms: _398  and  _401
REMARK  143  A    between atoms: _401  and  _402
REMARK  144  A    between atoms: _407  and  _409
REMARK  145  A    between atoms: _409  and  _410
REMARK  146  A    between atoms: _409  and  _412
REMARK  147  A    between atoms: _412  and  _413
REMARK  148  A    between atoms: _413  and  _414
REMARK  149  A    between atoms: _414  and  _415
REMARK                            x       y       z     vdW  Elec       q    Type
REMARK                         _______ _______ _______ _____ _____    ______ ____
ROOT
ATOM      1  NE  ARG A   1       2.002  -3.524  21.310  0.00  0.00    -0.265 N 
ATOM      2  CZ  ARG A   1       2.044  -2.493  22.145  0.00  0.00    +0.342 C 
ATOM      3  NH2 ARG A   1       3.251  -2.165  22.604  0.00  0.00    -0.292 N 
ATOM      4 HH21 ARG A   1       3.358  -1.367  23.262  0.00  0.00    +0.255 HD
ATOM      5 HH22 ARG A   1       4.086  -2.707  22.304  0.00  0.00    +0.255 HD
ATOM      6  NH1 ARG A   1       0.955  -1.778  22.504  0.00  0.00    -0.292 N 
ATOM      7 HH11 ARG A   1       1.051  -0.979  23.163  0.00  0.00    +0.255 HD
ATOM      8 HH12 ARG A   1       0.020  -2.026  22.121  0.00  0.00    +0.255 HD
ATOM      9  HE  ARG A   1       2.890  -4.019  21.091  0.00  0.00    +0.259 HD
ENDROOT
BRANCH   1  10
ATOM     10  CD  ARG A   1       0.781  -3.994  20.688  0.00  0.00    +0.174 C 
BRANCH  10  11
ATOM     11  CG  ARG A   1       1.031  -5.303  19.942  0.00  0.00    +0.045 C 
BRANCH  11  12
ATOM     12  CB  ARG A   1      -0.167  -5.628  19.047  0.00  0.00    +0.029 C 
BRANCH  12  13
ATOM     13  CA  ARG A   1      -0.164  -7.047  18.477  0.00  0.00    +0.133 C 
BRANCH  13  14
ATOM     14  N   ARG A   1      -1.194  -7.181  17.464  0.00  0.00    -0.239 NA
ATOM     15  H   ARG A   1      -2.059  -6.613  17.571  0.00  0.00    +0.142 HD
ENDBRANCH  13  14
BRANCH  13  16
ATOM     16  C   ARG A   1      -0.509  -8.040  19.590  0.00  0.00    +0.224 C 
ATOM     17  O   ARG A   1      -1.698  -8.271  19.822  0.00  0.00    -0.287 OA
ENDBRANCH  13  16
ENDBRANCH  12  13
ENDBRANCH  11  12
ENDBRANCH  10  11
ENDBRANCH   1  10
TORSDOF 6
REMARK  Name = ../refined-set-2016/1bnw/1bnw_pocket.pdb
REMARK  149 active torsions:
REMARK  status: ('A' for Active; 'I' for Inactive)
REMARK    1  A    between atoms: _1  and  _3
REMARK    2  A    between atoms: _3  and  _4
REMARK    3  A    between atoms: _3  and  _6
REMARK    4  A    between atoms: _6  and  _7
REMARK    5  A    between atoms: _17  and  _19
REMARK    6  A    between atoms: _19  and  _20
REMARK    7  A    between atoms: _19  and  _22
REMARK    8  A    between atoms: _22  and  _23
REMARK    9  A    between atoms: _28  and  _29
REMARK   10  A    between atoms: _31  and  _33
REMARK   11  A    between atoms: _33  and  _34
REMARK   12  A    between atoms: _33  and  _36
REMARK   13  A    between atoms: _36  and  _37
REMARK   14  A    between atoms: _40  and  _41
REMARK   15  A    between atoms: _46  and  _48
REMARK   16  A    between atoms: _48  and  _49
REMARK   17  A    between atoms: _48  and  _51
REMARK   18  A    between atoms: _51  and  _52
REMARK   19  A    between atoms: _57  and  _59
REMARK   20  A    between atoms: _59  and  _60
REMARK   21  A    between atoms: _63  and  _65
REMARK   22  A    between atoms: _65  and  _66
REMARK   23  A    between atoms: _65  and  _68
REMARK   24  A    between atoms: _68  and  _69
REMARK   25  A    between atoms: _74  and  _76
REMARK   26  A    between atoms: _76  and  _77
REMARK   27  A    between atoms: _76  and  _79
REMARK   28  A    between atoms: _79  and  _80
REMARK   29  A    between atoms: _83  and  _85
REMARK   30  A    between atoms: _85  and  _86
REMARK   31  A    between atoms: _85  and  _88
REMARK   32  A    between atoms: _88  and  _89
REMARK   33  A    between atoms: _89  and  _90
REMARK   34  A    between atoms: _95  and  _97
REMARK   35  A    between atoms: _97  and  _98
REMARK   36  A    between atoms: _97  and  _100
REMARK   37  A    between atoms: _100  and  _101
REMARK   38  A    between atoms: _107  and  _109
REMARK   39  A    between atoms: _120  and  _123
REMARK   40  A    between atoms: _123  and  _124
REMARK   41  A    between atoms: _132  and  _133
REMARK   42  A    between atoms: _141  and  _143
REMARK   43  A    between atoms: _143  and  _144
REMARK   44  A    between atoms: _143  and  _146
REMARK   45  A    between atoms: _146  and  _147
REMARK   46  A    between atoms: _147  and  _148
REMARK   47  A    between atoms: _151  and  _153
REMARK   48  A    between atoms: _153  and  _154
REMARK   49  A    between atoms: _153  and  _156
REMARK   50  A    between atoms: _156  and  _157
REMARK   51  A    between atoms: _162  and  _164
REMARK   52  A    between atoms: _164  and  _165
REMARK   53  A    between atoms: _164  and  _167
REMARK   54  A    between atoms: _167  and  _168
REMARK   55  A    between atoms: _168  and  _169
REMARK   56  A    between atoms: _172  and  _174
REMARK   57  A    between atoms: _174  and  _175
REMARK   58  A    between atoms: _174  and  _177
REMARK   59  A    between atoms: _177  and  _178
REMARK   60  A    between atoms: _181  and  _183
REMARK   61  A    between atoms: _183  and  _184
REMARK   62  A    between atoms: _183  and  _186
REMARK   63  A    between atoms: _186  and  _187
REMARK   64  A    between atoms: _188  and  ZN_424
REMARK   65  A    between atoms: _192  and  _194
REMARK   66  A    between atoms: _194  and  _195
REMARK   67  A    between atoms: _194  and  _197
REMARK   68  A    between atoms: _197  and  _198
REMARK   69  A    between atoms: _201  and  _203
REMARK   70  A    between atoms: _203  and  _204
REMARK   71  A    between atoms: _203  and  _206
REMARK   72  A    between atoms: _209  and  _211
REMARK   73  A    between atoms: _211  and  _212
REMARK   74  A    between atoms: _211  and  _214
REMARK   75  A    between atoms: _214  and  _215
REMARK   76  A    between atoms: _220  and  _222
REMARK   77  A    between atoms: _222  and  _223
REMARK   78  A    between atoms: _222  and  _225
REMARK   79  A    between atoms: _225  and  _226
REMARK   80  A    between atoms: _236  and  _238
REMARK   81  A    between atoms: _238  and  _239
REMARK   82  A    between atoms: _238  and  _241
REMARK   83  A    between atoms: _241  and  _242
REMARK   84  A    between atoms: _248  and  _250
REMARK   85  A    between atoms: _250  and  _251
REMARK   86  A    between atoms: _253  and  _255
REMARK   87  A    between atoms: _255  and  _256
REMARK   88  A    between atoms: _255  and  _258
REMARK   89  A    between atoms: _261  and  _263
REMARK   90  A    between atoms: _263  and  _264
REMARK   91  A    between atoms: _263  and  _266
REMARK   92  A    between atoms: _266  and  _267
REMARK   93  A    between atoms: _270  and  _272
REMARK   94  A    between atoms: _272  and  _273
REMARK   95  A    between atoms: _276  and  _278
REMARK   96  A    between atoms: _278  and  _279
REMARK   97  A    between atoms: _278  and  _281
REMARK   98  A    between atoms: _284  and  _286
REMARK   99  A    between atoms: _286  and  _287
REMARK  100  A    between atoms: _286  and  _289
REMARK  101  A    between atoms: _289  and  _290
REMARK  102  A    between atoms: _293  and  _295
REMARK  103  A    between atoms: _295  and  _296
REMARK  104  A    between atoms: _298  and  _300
REMARK  105  A    between atoms: _300  and  _301
REMARK  106  A    between atoms: _300  and  _303
REMARK  107  A    between atoms: _303  and  _304
REMARK  108  A    between atoms: _306  and  _308
REMARK  109  A    between atoms: _308  and  _309
REMARK  110  A    between atoms: _308  and  _311
REMARK  111  A    between atoms: _311  and  _312
REMARK  112  A    between atoms: _315  and  _317
REMARK  113  A    between atoms: _317  and  _318
REMARK  114  A    between atoms: _317  and  _320
REMARK  115  A    between atoms: _320  and  _321
REMARK  116  A    between atoms: _324  and  _326
REMARK  117  A    between atoms: _326  and  _327
REMARK  118  A    between atoms: _326  and  _329
REMARK  119  A    between atoms: _329  and  _330
REMARK  120  A    between atoms: _334  and  _335
REMARK  121  A    between atoms: _341  and  _342
REMARK  122  A    between atoms: _347  and  _349
REMARK  123  A    between atoms: _349  and  _350
REMARK  124  A    between atoms: _349  and  _352
REMARK  125  A    between atoms: _352  and  _353
REMARK  126  A    between atoms: _356  and  _358
REMARK  127  A    between atoms: _358  and  _359
REMARK  128  A    between atoms: _358  and  _361
REMARK  129  A    between atoms: _361  and  _362
REMARK  130  A    between atoms: _365  and  _367
REMARK  131  A    between atoms: _367  and  _368
REMARK  132  A    between atoms: _367  and  _370
REMARK  133  A    between atoms: _372  and  _374
REMARK  134  A    between atoms: _374  and  _375
REMARK  135  A    between atoms: _374  and  _377
REMARK  136  A    between atoms: _380  and  _382
REMARK  137  A    between atoms: _382  and  _383
REMARK  138  A    between atoms: _382  and  _385
REMARK  139  A    between atoms: _385  and  _386
REMARK  140  A    between atoms: _396  and  _398
REMARK  141  A    between atoms: _398  and  _399
REMARK  142  A    between atoms: _398  and  _401
REMARK  143  A    between atoms: _401  and  _402
REMARK  144  A    between atoms: _407  and  _409
REMARK  145  A    between atoms: _409  and  _410
REMARK  146  A    between atoms: _409  and  _412
REMARK  147  A    between atoms: _412  and  _413
REMARK  148  A    between atoms: _413  and  _414
REMARK  149  A    between atoms: _414  and  _415
REMARK                            x       y       z     vdW  Elec       q    Type
REMARK                         _______ _______ _______ _____ _____    ______ ____
ROOT
ATOM      1  O   HOH     1      -4.937   1.080  11.042  0.00  0.00    +0.000 OA
ENDROOT
TORSDOF 0
REMARK  Name = ../refined-set-2016/1bnw/1bnw_pocket.pdb
REMARK  149 active torsions:
REMARK  status: ('A' for Active; 'I' for Inactive)
REMARK    1  A    between atoms: _1  and  _3
REMARK    2  A    between atoms: _3  and  _4
REMARK    3  A    between atoms: _3  and  _6
REMARK    4  A    between atoms: _6  and  _7
REMARK    5  A    between atoms: _17  and  _19
REMARK    6  A    between atoms: _19  and  _20
REMARK    7  A    between atoms: _19  and  _22
REMARK    8  A    between atoms: _22  and  _23
REMARK    9  A    between atoms: _28  and  _29
REMARK   10  A    between atoms: _31  and  _33
REMARK   11  A    between atoms: _33  and  _34
REMARK   12  A    between atoms: _33  and  _36
REMARK   13  A    between atoms: _36  and  _37
REMARK   14  A    between atoms: _40  and  _41
REMARK   15  A    between atoms: _46  and  _48
REMARK   16  A    between atoms: _48  and  _49
REMARK   17  A    between atoms: _48  and  _51
REMARK   18  A    between atoms: _51  and  _52
REMARK   19  A    between atoms: _57  and  _59
REMARK   20  A    between atoms: _59  and  _60
REMARK   21  A    between atoms: _63  and  _65
REMARK   22  A    between atoms: _65  and  _66
REMARK   23  A    between atoms: _65  and  _68
REMARK   24  A    between atoms: _68  and  _69
REMARK   25  A    between atoms: _74  and  _76
REMARK   26  A    between atoms: _76  and  _77
REMARK   27  A    between atoms: _76  and  _79
REMARK   28  A    between atoms: _79  and  _80
REMARK   29  A    between atoms: _83  and  _85
REMARK   30  A    between atoms: _85  and  _86
REMARK   31  A    between atoms: _85  and  _88
REMARK   32  A    between atoms: _88  and  _89
REMARK   33  A    between atoms: _89  and  _90
REMARK   34  A    between atoms: _95  and  _97
REMARK   35  A    between atoms: _97  and  _98
REMARK   36  A    between atoms: _97  and  _100
REMARK   37  A    between atoms: _100  and  _101
REMARK   38  A    between atoms: _107  and  _109
REMARK   39  A    between atoms: _120  and  _123
REMARK   40  A    between atoms: _123  and  _124
REMARK   41  A    between atoms: _132  and  _133
REMARK   42  A    between atoms: _141  and  _143
REMARK   43  A    between atoms: _143  and  _144
REMARK   44  A    between atoms: _143  and  _146
REMARK   45  A    between atoms: _146  and  _147
REMARK   46  A    between atoms: _147  and  _148
REMARK   47  A    between atoms: _151  and  _153
REMARK   48  A    between atoms: _153  and  _154
REMARK   49  A    between atoms: _153  and  _156
REMARK   50  A    between atoms: _156  and  _157
REMARK   51  A    between atoms: _162  and  _164
REMARK   52  A    between atoms: _164  and  _165
REMARK   53  A    between atoms: _164  and  _167
REMARK   54  A    between atoms: _167  and  _168
REMARK   55  A    between atoms: _168  and  _169
REMARK   56  A    between atoms: _172  and  _174
REMARK   57  A    between atoms: _174  and  _175
REMARK   58  A    between atoms: _174  and  _177
REMARK   59  A    between atoms: _177  and  _178
REMARK   60  A    between atoms: _181  and  _183
REMARK   61  A    between atoms: _183  and  _184
REMARK   62  A    between atoms: _183  and  _186
REMARK   63  A    between atoms: _186  and  _187
REMARK   64  A    between atoms: _188  and  ZN_424
REMARK   65  A    between atoms: _192  and  _194
REMARK   66  A    between atoms: _194  and  _195
REMARK   67  A    between atoms: _194  and  _197
REMARK   68  A    between atoms: _197  and  _198
REMARK   69  A    between atoms: _201  and  _203
REMARK   70  A    between atoms: _203  and  _204
REMARK   71  A    between atoms: _203  and  _206
REMARK   72  A    between atoms: _209  and  _211
REMARK   73  A    between atoms: _211  and  _212
REMARK   74  A    between atoms: _211  and  _214
REMARK   75  A    between atoms: _214  and  _215
REMARK   76  A    between atoms: _220  and  _222
REMARK   77  A    between atoms: _222  and  _223
REMARK   78  A    between atoms: _222  and  _225
REMARK   79  A    between atoms: _225  and  _226
REMARK   80  A    between atoms: _236  and  _238
REMARK   81  A    between atoms: _238  and  _239
REMARK   82  A    between atoms: _238  and  _241
REMARK   83  A    between atoms: _241  and  _242
REMARK   84  A    between atoms: _248  and  _250
REMARK   85  A    between atoms: _250  and  _251
REMARK   86  A    between atoms: _253  and  _255
REMARK   87  A    between atoms: _255  and  _256
REMARK   88  A    between atoms: _255  and  _258
REMARK   89  A    between atoms: _261  and  _263
REMARK   90  A    between atoms: _263  and  _264
REMARK   91  A    between atoms: _263  and  _266
REMARK   92  A    between atoms: _266  and  _267
REMARK   93  A    between atoms: _270  and  _272
REMARK   94  A    between atoms: _272  and  _273
REMARK   95  A    between atoms: _276  and  _278
REMARK   96  A    between atoms: _278  and  _279
REMARK   97  A    between atoms: _278  and  _281
REMARK   98  A    between atoms: _284  and  _286
REMARK   99  A    between atoms: _286  and  _287
REMARK  100  A    between atoms: _286  and  _289
REMARK  101  A    between atoms: _289  and  _290
REMARK  102  A    between atoms: _293  and  _295
REMARK  103  A    between atoms: _295  and  _296
REMARK  104  A    between atoms: _298  and  _300
REMARK  105  A    between atoms: _300  and  _301
REMARK  106  A    between atoms: _300  and  _303
REMARK  107  A    between atoms: _303  and  _304
REMARK  108  A    between atoms: _306  and  _308
REMARK  109  A    between atoms: _308  and  _309
REMARK  110  A    between atoms: _308  and  _311
REMARK  111  A    between atoms: _311  and  _312
REMARK  112  A    between atoms: _315  and  _317
REMARK  113  A    between atoms: _317  and  _318
REMARK  114  A    between atoms: _317  and  _320
REMARK  115  A    between atoms: _320  and  _321
REMARK  116  A    between atoms: _324  and  _326
REMARK  117  A    between atoms: _326  and  _327
REMARK  118  A    between atoms: _326  and  _329
REMARK  119  A    between atoms: _329  and  _330
REMARK  120  A    between atoms: _334  and  _335
REMARK  121  A    between atoms: _341  and  _342
REMARK  122  A    between atoms: _347  and  _349
REMARK  123  A    between atoms: _349  and  _350
REMARK  124  A    between atoms: _349  and  _352
REMARK  125  A    between atoms: _352  and  _353
REMARK  126  A    between atoms: _356  and  _358
REMARK  127  A    between atoms: _358  and  _359
REMARK  128  A    between atoms: _358  and  _361
REMARK  129  A    between atoms: _361  and  _362
REMARK  130  A    between atoms: _365  and  _367
REMARK  131  A    between atoms: _367  and  _368
REMARK  132  A    between atoms: _367  and  _370
REMARK  133  A    between atoms: _372  and  _374
REMARK  134  A    between atoms: _374  and  _375
REMARK  135  A    between atoms: _374  and  _377
REMARK  136  A    between atoms: _380  and  _382
REMARK  137  A    between atoms: _382  and  _383
REMARK  138  A    between atoms: _382  and  _385
REMARK  139  A    between atoms: _385  and  _386
REMARK  140  A    between atoms: _396  and  _398
REMARK  141  A    between atoms: _398  and  _399
REMARK  142  A    between atoms: _398  and  _401
REMARK  143  A    between atoms: _401  and  _402
REMARK  144  A    between atoms: _407  and  _409
REMARK  145  A    between atoms: _409  and  _410
REMARK  146  A    between atoms: _409  and  _412
REMARK  147  A    between atoms: _412  and  _413
REMARK  148  A    between atoms: _413  and  _414
REMARK  149  A    between atoms: _414  and  _415
REMARK                            x       y       z     vdW  Elec       q    Type
REMARK                         _______ _______ _______ _____ _____    ______ ____
ROOT
ATOM      1  O   HOH     1      -1.417  -3.949  16.006  0.00  0.00    +0.000 OA
ENDROOT
TORSDOF 0
REMARK  Name = ../refined-set-2016/1bnw/1bnw_pocket.pdb
REMARK  149 active torsions:
REMARK  status: ('A' for Active; 'I' for Inactive)
REMARK    1  A    between atoms: _1  and  _3
REMARK    2  A    between atoms: _3  and  _4
REMARK    3  A    between atoms: _3  and  _6
REMARK    4  A    between atoms: _6  and  _7
REMARK    5  A    between atoms: _17  and  _19
REMARK    6  A    between atoms: _19  and  _20
REMARK    7  A    between atoms: _19  and  _22
REMARK    8  A    between atoms: _22  and  _23
REMARK    9  A    between atoms: _28  and  _29
REMARK   10  A    between atoms: _31  and  _33
REMARK   11  A    between atoms: _33  and  _34
REMARK   12  A    between atoms: _33  and  _36
REMARK   13  A    between atoms: _36  and  _37
REMARK   14  A    between atoms: _40  and  _41
REMARK   15  A    between atoms: _46  and  _48
REMARK   16  A    between atoms: _48  and  _49
REMARK   17  A    between atoms: _48  and  _51
REMARK   18  A    between atoms: _51  and  _52
REMARK   19  A    between atoms: _57  and  _59
REMARK   20  A    between atoms: _59  and  _60
REMARK   21  A    between atoms: _63  and  _65
REMARK   22  A    between atoms: _65  and  _66
REMARK   23  A    between atoms: _65  and  _68
REMARK   24  A    between atoms: _68  and  _69
REMARK   25  A    between atoms: _74  and  _76
REMARK   26  A    between atoms: _76  and  _77
REMARK   27  A    between atoms: _76  and  _79
REMARK   28  A    between atoms: _79  and  _80
REMARK   29  A    between atoms: _83  and  _85
REMARK   30  A    between atoms: _85  and  _86
REMARK   31  A    between atoms: _85  and  _88
REMARK   32  A    between atoms: _88  and  _89
REMARK   33  A    between atoms: _89  and  _90
REMARK   34  A    between atoms: _95  and  _97
REMARK   35  A    between atoms: _97  and  _98
REMARK   36  A    between atoms: _97  and  _100
REMARK   37  A    between atoms: _100  and  _101
REMARK   38  A    between atoms: _107  and  _109
REMARK   39  A    between atoms: _120  and  _123
REMARK   40  A    between atoms: _123  and  _124
REMARK   41  A    between atoms: _132  and  _133
REMARK   42  A    between atoms: _141  and  _143
REMARK   43  A    between atoms: _143  and  _144
REMARK   44  A    between atoms: _143  and  _146
REMARK   45  A    between atoms: _146  and  _147
REMARK   46  A    between atoms: _147  and  _148
REMARK   47  A    between atoms: _151  and  _153
REMARK   48  A    between atoms: _153  and  _154
REMARK   49  A    between atoms: _153  and  _156
REMARK   50  A    between atoms: _156  and  _157
REMARK   51  A    between atoms: _162  and  _164
REMARK   52  A    between atoms: _164  and  _165
REMARK   53  A    between atoms: _164  and  _167
REMARK   54  A    between atoms: _167  and  _168
REMARK   55  A    between atoms: _168  and  _169
REMARK   56  A    between atoms: _172  and  _174
REMARK   57  A    between atoms: _174  and  _175
REMARK   58  A    between atoms: _174  and  _177
REMARK   59  A    between atoms: _177  and  _178
REMARK   60  A    between atoms: _181  and  _183
REMARK   61  A    between atoms: _183  and  _184
REMARK   62  A    between atoms: _183  and  _186
REMARK   63  A    between atoms: _186  and  _187
REMARK   64  A    between atoms: _188  and  ZN_424
REMARK   65  A    between atoms: _192  and  _194
REMARK   66  A    between atoms: _194  and  _195
REMARK   67  A    between atoms: _194  and  _197
REMARK   68  A    between atoms: _197  and  _198
REMARK   69  A    between atoms: _201  and  _203
REMARK   70  A    between atoms: _203  and  _204
REMARK   71  A    between atoms: _203  and  _206
REMARK   72  A    between atoms: _209  and  _211
REMARK   73  A    between atoms: _211  and  _212
REMARK   74  A    between atoms: _211  and  _214
REMARK   75  A    between atoms: _214  and  _215
REMARK   76  A    between atoms: _220  and  _222
REMARK   77  A    between atoms: _222  and  _223
REMARK   78  A    between atoms: _222  and  _225
REMARK   79  A    between atoms: _225  and  _226
REMARK   80  A    between atoms: _236  and  _238
REMARK   81  A    between atoms: _238  and  _239
REMARK   82  A    between atoms: _238  and  _241
REMARK   83  A    between atoms: _241  and  _242
REMARK   84  A    between atoms: _248  and  _250
REMARK   85  A    between atoms: _250  and  _251
REMARK   86  A    between atoms: _253  and  _255
REMARK   87  A    between atoms: _255  and  _256
REMARK   88  A    between atoms: _255  and  _258
REMARK   89  A    between atoms: _261  and  _263
REMARK   90  A    between atoms: _263  and  _264
REMARK   91  A    between atoms: _263  and  _266
REMARK   92  A    between atoms: _266  and  _267
REMARK   93  A    between atoms: _270  and  _272
REMARK   94  A    between atoms: _272  and  _273
REMARK   95  A    between atoms: _276  and  _278
REMARK   96  A    between atoms: _278  and  _279
REMARK   97  A    between atoms: _278  and  _281
REMARK   98  A    between atoms: _284  and  _286
REMARK   99  A    between atoms: _286  and  _287
REMARK  100  A    between atoms: _286  and  _289
REMARK  101  A    between atoms: _289  and  _290
REMARK  102  A    between atoms: _293  and  _295
REMARK  103  A    between atoms: _295  and  _296
REMARK  104  A    between atoms: _298  and  _300
REMARK  105  A    between atoms: _300  and  _301
REMARK  106  A    between atoms: _300  and  _303
REMARK  107  A    between atoms: _303  and  _304
REMARK  108  A    between atoms: _306  and  _308
REMARK  109  A    between atoms: _308  and  _309
REMARK  110  A    between atoms: _308  and  _311
REMARK  111  A    between atoms: _311  and  _312
REMARK  112  A    between atoms: _315  and  _317
REMARK  113  A    between atoms: _317  and  _318
REMARK  114  A    between atoms: _317  and  _320
REMARK  115  A    between atoms: _320  and  _321
REMARK  116  A    between atoms: _324  and  _326
REMARK  117  A    between atoms: _326  and  _327
REMARK  118  A    between atoms: _326  and  _329
REMARK  119  A    between atoms: _329  and  _330
REMARK  120  A    between atoms: _334  and  _335
REMARK  121  A    between atoms: _341  and  _342
REMARK  122  A    between atoms: _347  and  _349
REMARK  123  A    between atoms: _349  and  _350
REMARK  124  A    between atoms: _349  and  _352
REMARK  125  A    between atoms: _352  and  _353
REMARK  126  A    between atoms: _356  and  _358
REMARK  127  A    between atoms: _358  and  _359
REMARK  128  A    between atoms: _358  and  _361
REMARK  129  A    between atoms: _361  and  _362
REMARK  130  A    between atoms: _365  and  _367
REMARK  131  A    between atoms: _367  and  _368
REMARK  132  A    between atoms: _367  and  _370
REMARK  133  A    between atoms: _372  and  _374
REMARK  134  A    between atoms: _374  and  _375
REMARK  135  A    between atoms: _374  and  _377
REMARK  136  A    between atoms: _380  and  _382
REMARK  137  A    between atoms: _382  and  _383
REMARK  138  A    between atoms: _382  and  _385
REMARK  139  A    between atoms: _385  and  _386
REMARK  140  A    between atoms: _396  and  _398
REMARK  141  A    between atoms: _398  and  _399
REMARK  142  A    between atoms: _398  and  _401
REMARK  143  A    between atoms: _401  and  _402
REMARK  144  A    between atoms: _407  and  _409
REMARK  145  A    between atoms: _409  and  _410
REMARK  146  A    between atoms: _409  and  _412
REMARK  147  A    between atoms: _412  and  _413
REMARK  148  A    between atoms: _413  and  _414
REMARK  149  A    between atoms: _414  and  _415
REMARK                            x       y       z     vdW  Elec       q    Type
REMARK                         _______ _______ _______ _____ _____    ______ ____
ROOT
ATOM      1  O   HOH     1      -2.617  -3.048  11.611  0.00  0.00    +0.000 OA
ENDROOT
TORSDOF 0
