REMARK  Name = ../refined-set-2016/4kwo/4kwo_pocket.pdb
REMARK  212 active torsions:
REMARK  status: ('A' for Active; 'I' for Inactive)
REMARK    1  A    between atoms: _1  and  _3
REMARK    2  A    between atoms: _3  and  _4
REMARK    3  A    between atoms: _3  and  _6
REMARK    4  A    between atoms: _6  and  _7
REMARK    5  A    between atoms: _7  and  _8
REMARK    6  A    between atoms: _11  and  _12
REMARK    7  A    between atoms: _17  and  _19
REMARK    8  A    between atoms: _19  and  _20
REMARK    9  A    between atoms: _19  and  _22
REMARK   10  A    between atoms: _25  and  _27
REMARK   11  A    between atoms: _27  and  _28
REMARK   12  A    between atoms: _30  and  _32
REMARK   13  A    between atoms: _32  and  _33
REMARK   14  A    between atoms: _32  and  _35
REMARK   15  A    between atoms: _35  and  _36
REMARK   16  A    between atoms: _39  and  _41
REMARK   17  A    between atoms: _41  and  _42
REMARK   18  A    between atoms: _41  and  _44
REMARK   19  A    between atoms: _44  and  _45
REMARK   20  A    between atoms: _48  and  _50
REMARK   21  A    between atoms: _50  and  _51
REMARK   22  A    between atoms: _53  and  _55
REMARK   23  A    between atoms: _55  and  _56
REMARK   24  A    between atoms: _55  and  _58
REMARK   25  A    between atoms: _58  and  _59
REMARK   26  A    between atoms: _64  and  _66
REMARK   27  A    between atoms: _66  and  _67
REMARK   28  A    between atoms: _66  and  _69
REMARK   29  A    between atoms: _69  and  _70
REMARK   30  A    between atoms: _73  and  _75
REMARK   31  A    between atoms: _75  and  _76
REMARK   32  A    between atoms: _75  and  _78
REMARK   33  A    between atoms: _78  and  _79
REMARK   34  A    between atoms: _84  and  _85
REMARK   35  A    between atoms: _87  and  _89
REMARK   36  A    between atoms: _89  and  _90
REMARK   37  A    between atoms: _89  and  _92
REMARK   38  A    between atoms: _92  and  _93
REMARK   39  A    between atoms: _98  and  _100
REMARK   40  A    between atoms: _100  and  _101
REMARK   41  A    between atoms: _100  and  _103
REMARK   42  A    between atoms: _103  and  _104
REMARK   43  A    between atoms: _107  and  _109
REMARK   44  A    between atoms: _109  and  _110
REMARK   45  A    between atoms: _109  and  _112
REMARK   46  A    between atoms: _112  and  _113
REMARK   47  A    between atoms: _116  and  _118
REMARK   48  A    between atoms: _118  and  _119
REMARK   49  A    between atoms: _118  and  _121
REMARK   50  A    between atoms: _121  and  _122
REMARK   51  A    between atoms: _125  and  _127
REMARK   52  A    between atoms: _127  and  _128
REMARK   53  A    between atoms: _127  and  _130
REMARK   54  A    between atoms: _130  and  _131
REMARK   55  A    between atoms: _133  and  _135
REMARK   56  A    between atoms: _135  and  _136
REMARK   57  A    between atoms: _138  and  _140
REMARK   58  A    between atoms: _140  and  _141
REMARK   59  A    between atoms: _143  and  _145
REMARK   60  A    between atoms: _145  and  _146
REMARK   61  A    between atoms: _145  and  _148
REMARK   62  A    between atoms: _148  and  _149
REMARK   63  A    between atoms: _154  and  _155
REMARK   64  A    between atoms: _157  and  _159
REMARK   65  A    between atoms: _159  and  _160
REMARK   66  A    between atoms: _159  and  _162
REMARK   67  A    between atoms: _162  and  _163
REMARK   68  A    between atoms: _163  and  _164
REMARK   69  A    between atoms: _169  and  _171
REMARK   70  A    between atoms: _171  and  _172
REMARK   71  A    between atoms: _171  and  _174
REMARK   72  A    between atoms: _174  and  _175
REMARK   73  A    between atoms: _178  and  _180
REMARK   74  A    between atoms: _180  and  _181
REMARK   75  A    between atoms: _180  and  _183
REMARK   76  A    between atoms: _183  and  _184
REMARK   77  A    between atoms: _184  and  _185
REMARK   78  A    between atoms: _190  and  _192
REMARK   79  A    between atoms: _192  and  _193
REMARK   80  A    between atoms: _192  and  _195
REMARK   81  A    between atoms: _195  and  _196
REMARK   82  A    between atoms: _199  and  _201
REMARK   83  A    between atoms: _201  and  _202
REMARK   84  A    between atoms: _201  and  _204
REMARK   85  A    between atoms: _204  and  _205
REMARK   86  A    between atoms: _205  and  _206
REMARK   87  A    between atoms: _208  and  _210
REMARK   88  A    between atoms: _210  and  _211
REMARK   89  A    between atoms: _214  and  _216
REMARK   90  A    between atoms: _216  and  _217
REMARK   91  A    between atoms: _216  and  _219
REMARK   92  A    between atoms: _219  and  _220
REMARK   93  A    between atoms: _226  and  _228
REMARK   94  A    between atoms: _228  and  _229
REMARK   95  A    between atoms: _228  and  _231
REMARK   96  A    between atoms: _231  and  _232
REMARK   97  A    between atoms: _235  and  _237
REMARK   98  A    between atoms: _237  and  _238
REMARK   99  A    between atoms: _237  and  _240
REMARK  100  A    between atoms: _240  and  _241
REMARK  101  A    between atoms: _241  and  _242
REMARK  102  A    between atoms: _245  and  _247
REMARK  103  A    between atoms: _247  and  _248
REMARK  104  A    between atoms: _247  and  _250
REMARK  105  A    between atoms: _252  and  _254
REMARK  106  A    between atoms: _254  and  _255
REMARK  107  A    between atoms: _254  and  _257
REMARK  108  A    between atoms: _257  and  _258
REMARK  109  A    between atoms: _261  and  _263
REMARK  110  A    between atoms: _263  and  _264
REMARK  111  A    between atoms: _263  and  _266
REMARK  112  A    between atoms: _266  and  _267
REMARK  113  A    between atoms: _269  and  _271
REMARK  114  A    between atoms: _271  and  _272
REMARK  115  A    between atoms: _271  and  _274
REMARK  116  A    between atoms: _274  and  _275
REMARK  117  A    between atoms: _278  and  _280
REMARK  118  A    between atoms: _280  and  _281
REMARK  119  A    between atoms: _280  and  _283
REMARK  120  A    between atoms: _283  and  _284
REMARK  121  A    between atoms: _284  and  _285
REMARK  122  A    between atoms: _290  and  _292
REMARK  123  A    between atoms: _292  and  _293
REMARK  124  A    between atoms: _292  and  _295
REMARK  125  A    between atoms: _295  and  _296
REMARK  126  A    between atoms: _296  and  _297
REMARK  127  A    between atoms: _302  and  _304
REMARK  128  A    between atoms: _304  and  _305
REMARK  129  A    between atoms: _307  and  _309
REMARK  130  A    between atoms: _309  and  _310
REMARK  131  A    between atoms: _309  and  _312
REMARK  132  A    between atoms: _312  and  _313
REMARK  133  A    between atoms: _315  and  _317
REMARK  134  A    between atoms: _317  and  _318
REMARK  135  A    between atoms: _317  and  _320
REMARK  136  A    between atoms: _320  and  _321
REMARK  137  A    between atoms: _321  and  _322
REMARK  138  A    between atoms: _322  and  _323
REMARK  139  A    between atoms: _332  and  _334
REMARK  140  A    between atoms: _334  and  _335
REMARK  141  A    between atoms: _338  and  _340
REMARK  142  A    between atoms: _340  and  _341
REMARK  143  A    between atoms: _340  and  _343
REMARK  144  A    between atoms: _346  and  _348
REMARK  145  A    between atoms: _348  and  _349
REMARK  146  A    between atoms: _351  and  _353
REMARK  147  A    between atoms: _353  and  _354
REMARK  148  A    between atoms: _356  and  _358
REMARK  149  A    between atoms: _358  and  _359
REMARK  150  A    between atoms: _358  and  _361
REMARK  151  A    between atoms: _361  and  _362
REMARK  152  A    between atoms: _365  and  _367
REMARK  153  A    between atoms: _367  and  _368
REMARK  154  A    between atoms: _371  and  _373
REMARK  155  A    between atoms: _373  and  _374
REMARK  156  A    between atoms: _373  and  _376
REMARK  157  A    between atoms: _379  and  _381
REMARK  158  A    between atoms: _381  and  _382
REMARK  159  A    between atoms: _384  and  _386
REMARK  160  A    between atoms: _386  and  _387
REMARK  161  A    between atoms: _386  and  _389
REMARK  162  A    between atoms: _389  and  _390
REMARK  163  A    between atoms: _390  and  _391
REMARK  164  A    between atoms: _394  and  _396
REMARK  165  A    between atoms: _396  and  _397
REMARK  166  A    between atoms: _396  and  _399
REMARK  167  A    between atoms: _399  and  _400
REMARK  168  A    between atoms: _405  and  _406
REMARK  169  A    between atoms: _408  and  _410
REMARK  170  A    between atoms: _410  and  _411
REMARK  171  A    between atoms: _410  and  _413
REMARK  172  A    between atoms: _413  and  _414
REMARK  173  A    between atoms: _417  and  _419
REMARK  174  A    between atoms: _419  and  _420
REMARK  175  A    between atoms: _419  and  _422
REMARK  176  A    between atoms: _422  and  _423
REMARK  177  A    between atoms: _423  and  _424
REMARK  178  A    between atoms: _426  and  _428
REMARK  179  A    between atoms: _428  and  _429
REMARK  180  A    between atoms: _431  and  _433
REMARK  181  A    between atoms: _433  and  _434
REMARK  182  A    between atoms: _433  and  _436
REMARK  183  A    between atoms: _439  and  _441
REMARK  184  A    between atoms: _441  and  _442
REMARK  185  A    between atoms: _444  and  _446
REMARK  186  A    between atoms: _446  and  _447
REMARK  187  A    between atoms: _446  and  _449
REMARK  188  A    between atoms: _449  and  _450
REMARK  189  A    between atoms: _456  and  _458
REMARK  190  A    between atoms: _458  and  _459
REMARK  191  A    between atoms: _458  and  _461
REMARK  192  A    between atoms: _461  and  _462
REMARK  193  A    between atoms: _465  and  _467
REMARK  194  A    between atoms: _467  and  _468
REMARK  195  A    between atoms: _467  and  _470
REMARK  196  A    between atoms: _472  and  _474
REMARK  197  A    between atoms: _474  and  _475
REMARK  198  A    between atoms: _474  and  _477
REMARK  199  A    between atoms: _480  and  _482
REMARK  200  A    between atoms: _482  and  _483
REMARK  201  A    between atoms: _482  and  _485
REMARK  202  A    between atoms: _485  and  _486
REMARK  203  A    between atoms: _489  and  _491
REMARK  204  A    between atoms: _491  and  _492
REMARK  205  A    between atoms: _491  and  _494
REMARK  206  A    between atoms: _494  and  _495
REMARK  207  A    between atoms: _498  and  _500
REMARK  208  A    between atoms: _500  and  _501
REMARK  209  A    between atoms: _500  and  _503
REMARK  210  A    between atoms: _503  and  _504
REMARK  211  A    between atoms: _504  and  _505
REMARK  212  A    between atoms: _505  and  _506
REMARK                            x       y       z     vdW  Elec       q    Type
REMARK                         _______ _______ _______ _____ _____    ______ ____
ROOT
ATOM      1  C   PRO A   2      94.395   7.067  12.680  0.00  0.00    +0.241 C 
ATOM      2  O   PRO A   2      93.818   6.516  13.622  0.00  0.00    -0.273 OA
ATOM      3  N   VAL A   3      94.032   8.244  12.196  0.00  0.00    -0.297 N 
ATOM      4  H   VAL A   3      94.640   8.698  11.485  0.00  0.00    +0.150 HD
ENDROOT
BRANCH   1  11
ATOM      5  C   MET A   1      97.069   5.777  13.790  0.00  0.00    +0.242 C 
ATOM      6  O   MET A   1      97.282   6.958  14.055  0.00  0.00    -0.273 OA
ATOM      7  N   PRO A   2      96.222   5.397  12.825  0.00  0.00    -0.272 N 
ATOM      8  CD  PRO A   2      95.923   4.035  12.350  0.00  0.00    +0.094 C 
ATOM      9  CG  PRO A   2      94.884   4.271  11.285  0.00  0.00    +0.024 C 
ATOM     10  CB  PRO A   2      95.105   5.642  10.770  0.00  0.00    +0.031 C 
ATOM     11  CA  PRO A   2      95.584   6.426  11.996  0.00  0.00    +0.152 C 
BRANCH   5  12
ATOM     12  CA  MET A   1      97.809   4.676  14.538  0.00  0.00    +0.146 C 
BRANCH  12  13
ATOM     13  N   MET A   1      99.166   4.599  14.014  0.00  0.00    -0.238 NA
ATOM     14  H   MET A   1      99.794   5.421  14.122  0.00  0.00    +0.142 HD
ENDBRANCH  12  13
BRANCH  12  15
ATOM     15  CB  MET A   1      97.868   4.979  16.035  0.00  0.00    +0.038 C 
BRANCH  15  16
ATOM     16  CG  MET A   1      98.884   4.101  16.762  0.00  0.00    +0.060 C 
BRANCH  16  17
ATOM     17  SD  MET A   1      98.891   4.322  18.566  0.00  0.00    -0.139 S 
ATOM     18  CE  MET A   1      99.692   5.927  18.698  0.00  0.00    +0.069 C 
ENDBRANCH  16  17
ENDBRANCH  15  16
ENDBRANCH  12  15
ENDBRANCH   5  12
ENDBRANCH   1  11
BRANCH   3  19
ATOM     19  CA  VAL A   3      92.820   8.930  12.614  0.00  0.00    +0.149 C 
BRANCH  19  20
ATOM     20  C   VAL A   3      91.626   8.024  12.333  0.00  0.00    +0.241 C 
ATOM     21  N   GLY A   4      90.716   7.879  13.289  0.00  0.00    -0.296 N 
ATOM     22  H   GLY A   4      90.789   8.451  14.154  0.00  0.00    +0.150 HD
ATOM     23  O   VAL A   3      91.530   7.474  11.241  0.00  0.00    -0.273 OA
BRANCH  21  24
ATOM     24  CA  GLY A   4      89.622   6.937  13.149  0.00  0.00    +0.163 C 
BRANCH  24  25
ATOM     25  C   GLY A   4      88.612   7.324  12.097  0.00  0.00    +0.229 C 
ATOM     26  O   GLY A   4      87.977   6.463  11.489  0.00  0.00    -0.286 OA
ENDBRANCH  24  25
ENDBRANCH  21  24
ENDBRANCH  19  20
BRANCH  19  27
ATOM     27  CB  VAL A   3      92.667  10.234  11.811  0.00  0.00    +0.027 C 
ATOM     28  CG2 VAL A   3      91.367  10.943  12.150  0.00  0.00    +0.002 C 
ATOM     29  CG1 VAL A   3      93.864  11.143  12.046  0.00  0.00    +0.002 C 
ENDBRANCH  19  27
ENDBRANCH   3  19
TORSDOF 11
REMARK  Name = ../refined-set-2016/4kwo/4kwo_pocket.pdb
REMARK  212 active torsions:
REMARK  status: ('A' for Active; 'I' for Inactive)
REMARK    1  A    between atoms: _1  and  _3
REMARK    2  A    between atoms: _3  and  _4
REMARK    3  A    between atoms: _3  and  _6
REMARK    4  A    between atoms: _6  and  _7
REMARK    5  A    between atoms: _7  and  _8
REMARK    6  A    between atoms: _11  and  _12
REMARK    7  A    between atoms: _17  and  _19
REMARK    8  A    between atoms: _19  and  _20
REMARK    9  A    between atoms: _19  and  _22
REMARK   10  A    between atoms: _25  and  _27
REMARK   11  A    between atoms: _27  and  _28
REMARK   12  A    between atoms: _30  and  _32
REMARK   13  A    between atoms: _32  and  _33
REMARK   14  A    between atoms: _32  and  _35
REMARK   15  A    between atoms: _35  and  _36
REMARK   16  A    between atoms: _39  and  _41
REMARK   17  A    between atoms: _41  and  _42
REMARK   18  A    between atoms: _41  and  _44
REMARK   19  A    between atoms: _44  and  _45
REMARK   20  A    between atoms: _48  and  _50
REMARK   21  A    between atoms: _50  and  _51
REMARK   22  A    between atoms: _53  and  _55
REMARK   23  A    between atoms: _55  and  _56
REMARK   24  A    between atoms: _55  and  _58
REMARK   25  A    between atoms: _58  and  _59
REMARK   26  A    between atoms: _64  and  _66
REMARK   27  A    between atoms: _66  and  _67
REMARK   28  A    between atoms: _66  and  _69
REMARK   29  A    between atoms: _69  and  _70
REMARK   30  A    between atoms: _73  and  _75
REMARK   31  A    between atoms: _75  and  _76
REMARK   32  A    between atoms: _75  and  _78
REMARK   33  A    between atoms: _78  and  _79
REMARK   34  A    between atoms: _84  and  _85
REMARK   35  A    between atoms: _87  and  _89
REMARK   36  A    between atoms: _89  and  _90
REMARK   37  A    between atoms: _89  and  _92
REMARK   38  A    between atoms: _92  and  _93
REMARK   39  A    between atoms: _98  and  _100
REMARK   40  A    between atoms: _100  and  _101
REMARK   41  A    between atoms: _100  and  _103
REMARK   42  A    between atoms: _103  and  _104
REMARK   43  A    between atoms: _107  and  _109
REMARK   44  A    between atoms: _109  and  _110
REMARK   45  A    between atoms: _109  and  _112
REMARK   46  A    between atoms: _112  and  _113
REMARK   47  A    between atoms: _116  and  _118
REMARK   48  A    between atoms: _118  and  _119
REMARK   49  A    between atoms: _118  and  _121
REMARK   50  A    between atoms: _121  and  _122
REMARK   51  A    between atoms: _125  and  _127
REMARK   52  A    between atoms: _127  and  _128
REMARK   53  A    between atoms: _127  and  _130
REMARK   54  A    between atoms: _130  and  _131
REMARK   55  A    between atoms: _133  and  _135
REMARK   56  A    between atoms: _135  and  _136
REMARK   57  A    between atoms: _138  and  _140
REMARK   58  A    between atoms: _140  and  _141
REMARK   59  A    between atoms: _143  and  _145
REMARK   60  A    between atoms: _145  and  _146
REMARK   61  A    between atoms: _145  and  _148
REMARK   62  A    between atoms: _148  and  _149
REMARK   63  A    between atoms: _154  and  _155
REMARK   64  A    between atoms: _157  and  _159
REMARK   65  A    between atoms: _159  and  _160
REMARK   66  A    between atoms: _159  and  _162
REMARK   67  A    between atoms: _162  and  _163
REMARK   68  A    between atoms: _163  and  _164
REMARK   69  A    between atoms: _169  and  _171
REMARK   70  A    between atoms: _171  and  _172
REMARK   71  A    between atoms: _171  and  _174
REMARK   72  A    between atoms: _174  and  _175
REMARK   73  A    between atoms: _178  and  _180
REMARK   74  A    between atoms: _180  and  _181
REMARK   75  A    between atoms: _180  and  _183
REMARK   76  A    between atoms: _183  and  _184
REMARK   77  A    between atoms: _184  and  _185
REMARK   78  A    between atoms: _190  and  _192
REMARK   79  A    between atoms: _192  and  _193
REMARK   80  A    between atoms: _192  and  _195
REMARK   81  A    between atoms: _195  and  _196
REMARK   82  A    between atoms: _199  and  _201
REMARK   83  A    between atoms: _201  and  _202
REMARK   84  A    between atoms: _201  and  _204
REMARK   85  A    between atoms: _204  and  _205
REMARK   86  A    between atoms: _205  and  _206
REMARK   87  A    between atoms: _208  and  _210
REMARK   88  A    between atoms: _210  and  _211
REMARK   89  A    between atoms: _214  and  _216
REMARK   90  A    between atoms: _216  and  _217
REMARK   91  A    between atoms: _216  and  _219
REMARK   92  A    between atoms: _219  and  _220
REMARK   93  A    between atoms: _226  and  _228
REMARK   94  A    between atoms: _228  and  _229
REMARK   95  A    between atoms: _228  and  _231
REMARK   96  A    between atoms: _231  and  _232
REMARK   97  A    between atoms: _235  and  _237
REMARK   98  A    between atoms: _237  and  _238
REMARK   99  A    between atoms: _237  and  _240
REMARK  100  A    between atoms: _240  and  _241
REMARK  101  A    between atoms: _241  and  _242
REMARK  102  A    between atoms: _245  and  _247
REMARK  103  A    between atoms: _247  and  _248
REMARK  104  A    between atoms: _247  and  _250
REMARK  105  A    between atoms: _252  and  _254
REMARK  106  A    between atoms: _254  and  _255
REMARK  107  A    between atoms: _254  and  _257
REMARK  108  A    between atoms: _257  and  _258
REMARK  109  A    between atoms: _261  and  _263
REMARK  110  A    between atoms: _263  and  _264
REMARK  111  A    between atoms: _263  and  _266
REMARK  112  A    between atoms: _266  and  _267
REMARK  113  A    between atoms: _269  and  _271
REMARK  114  A    between atoms: _271  and  _272
REMARK  115  A    between atoms: _271  and  _274
REMARK  116  A    between atoms: _274  and  _275
REMARK  117  A    between atoms: _278  and  _280
REMARK  118  A    between atoms: _280  and  _281
REMARK  119  A    between atoms: _280  and  _283
REMARK  120  A    between atoms: _283  and  _284
REMARK  121  A    between atoms: _284  and  _285
REMARK  122  A    between atoms: _290  and  _292
REMARK  123  A    between atoms: _292  and  _293
REMARK  124  A    between atoms: _292  and  _295
REMARK  125  A    between atoms: _295  and  _296
REMARK  126  A    between atoms: _296  and  _297
REMARK  127  A    between atoms: _302  and  _304
REMARK  128  A    between atoms: _304  and  _305
REMARK  129  A    between atoms: _307  and  _309
REMARK  130  A    between atoms: _309  and  _310
REMARK  131  A    between atoms: _309  and  _312
REMARK  132  A    between atoms: _312  and  _313
REMARK  133  A    between atoms: _315  and  _317
REMARK  134  A    between atoms: _317  and  _318
REMARK  135  A    between atoms: _317  and  _320
REMARK  136  A    between atoms: _320  and  _321
REMARK  137  A    between atoms: _321  and  _322
REMARK  138  A    between atoms: _322  and  _323
REMARK  139  A    between atoms: _332  and  _334
REMARK  140  A    between atoms: _334  and  _335
REMARK  141  A    between atoms: _338  and  _340
REMARK  142  A    between atoms: _340  and  _341
REMARK  143  A    between atoms: _340  and  _343
REMARK  144  A    between atoms: _346  and  _348
REMARK  145  A    between atoms: _348  and  _349
REMARK  146  A    between atoms: _351  and  _353
REMARK  147  A    between atoms: _353  and  _354
REMARK  148  A    between atoms: _356  and  _358
REMARK  149  A    between atoms: _358  and  _359
REMARK  150  A    between atoms: _358  and  _361
REMARK  151  A    between atoms: _361  and  _362
REMARK  152  A    between atoms: _365  and  _367
REMARK  153  A    between atoms: _367  and  _368
REMARK  154  A    between atoms: _371  and  _373
REMARK  155  A    between atoms: _373  and  _374
REMARK  156  A    between atoms: _373  and  _376
REMARK  157  A    between atoms: _379  and  _381
REMARK  158  A    between atoms: _381  and  _382
REMARK  159  A    between atoms: _384  and  _386
REMARK  160  A    between atoms: _386  and  _387
REMARK  161  A    between atoms: _386  and  _389
REMARK  162  A    between atoms: _389  and  _390
REMARK  163  A    between atoms: _390  and  _391
REMARK  164  A    between atoms: _394  and  _396
REMARK  165  A    between atoms: _396  and  _397
REMARK  166  A    between atoms: _396  and  _399
REMARK  167  A    between atoms: _399  and  _400
REMARK  168  A    between atoms: _405  and  _406
REMARK  169  A    between atoms: _408  and  _410
REMARK  170  A    between atoms: _410  and  _411
REMARK  171  A    between atoms: _410  and  _413
REMARK  172  A    between atoms: _413  and  _414
REMARK  173  A    between atoms: _417  and  _419
REMARK  174  A    between atoms: _419  and  _420
REMARK  175  A    between atoms: _419  and  _422
REMARK  176  A    between atoms: _422  and  _423
REMARK  177  A    between atoms: _423  and  _424
REMARK  178  A    between atoms: _426  and  _428
REMARK  179  A    between atoms: _428  and  _429
REMARK  180  A    between atoms: _431  and  _433
REMARK  181  A    between atoms: _433  and  _434
REMARK  182  A    between atoms: _433  and  _436
REMARK  183  A    between atoms: _439  and  _441
REMARK  184  A    between atoms: _441  and  _442
REMARK  185  A    between atoms: _444  and  _446
REMARK  186  A    between atoms: _446  and  _447
REMARK  187  A    between atoms: _446  and  _449
REMARK  188  A    between atoms: _449  and  _450
REMARK  189  A    between atoms: _456  and  _458
REMARK  190  A    between atoms: _458  and  _459
REMARK  191  A    between atoms: _458  and  _461
REMARK  192  A    between atoms: _461  and  _462
REMARK  193  A    between atoms: _465  and  _467
REMARK  194  A    between atoms: _467  and  _468
REMARK  195  A    between atoms: _467  and  _470
REMARK  196  A    between atoms: _472  and  _474
REMARK  197  A    between atoms: _474  and  _475
REMARK  198  A    between atoms: _474  and  _477
REMARK  199  A    between atoms: _480  and  _482
REMARK  200  A    between atoms: _482  and  _483
REMARK  201  A    between atoms: _482  and  _485
REMARK  202  A    between atoms: _485  and  _486
REMARK  203  A    between atoms: _489  and  _491
REMARK  204  A    between atoms: _491  and  _492
REMARK  205  A    between atoms: _491  and  _494
REMARK  206  A    between atoms: _494  and  _495
REMARK  207  A    between atoms: _498  and  _500
REMARK  208  A    between atoms: _500  and  _501
REMARK  209  A    between atoms: _500  and  _503
REMARK  210  A    between atoms: _503  and  _504
REMARK  211  A    between atoms: _504  and  _505
REMARK  212  A    between atoms: _505  and  _506
REMARK                            x       y       z     vdW  Elec       q    Type
REMARK                         _______ _______ _______ _____ _____    ______ ____
ROOT
ATOM      1  C   ASN A   4      89.175  13.629  19.764  0.00  0.00    +0.241 C 
ATOM      2  N   THR A   5      89.851  13.511  20.900  0.00  0.00    -0.295 N 
ATOM      3  H   THR A   5      90.792  13.068  20.882  0.00  0.00    +0.150 HD
ATOM      4  O   ASN A   4      88.090  14.200  19.683  0.00  0.00    -0.273 OA
ENDROOT
BRANCH   2   5
ATOM      5  CA  THR A   5      89.317  13.982  22.171  0.00  0.00    +0.176 C 
BRANCH   5   6
ATOM      6  C   THR A   5      88.821  15.422  22.125  0.00  0.00    +0.243 C 
ATOM      7  O   THR A   5      87.705  15.720  22.559  0.00  0.00    -0.273 OA
ATOM      8  N   TYR A   6      89.651  16.307  21.592  0.00  0.00    -0.297 N 
ATOM      9  H   TYR A   6      90.558  15.987  21.195  0.00  0.00    +0.150 HD
BRANCH   8  10
ATOM     10  CA  TYR A   6      89.311  17.715  21.555  0.00  0.00    +0.153 C 
BRANCH  10  11
ATOM     11  C   TYR A   6      88.034  17.974  20.764  0.00  0.00    +0.241 C 
ATOM     12  O   TYR A   6      87.152  18.698  21.230  0.00  0.00    -0.273 OA
ATOM     13  N   HIS A   7      87.924  17.397  19.569  0.00  0.00    -0.298 N 
ATOM     14  H   HIS A   7      88.694  16.809  19.192  0.00  0.00    +0.150 HD
BRANCH  13  15
ATOM     15  CA  HIS A   7      86.702  17.606  18.799  0.00  0.00    +0.143 C 
BRANCH  15  16
ATOM     16  C   HIS A   7      85.507  16.994  19.509  0.00  0.00    +0.227 C 
ATOM     17  O   HIS A   7      84.457  17.627  19.612  0.00  0.00    -0.286 OA
ENDBRANCH  15  16
BRANCH  15  18
ATOM     18  CB  HIS A   7      86.776  17.040  17.382  0.00  0.00    +0.075 C 
BRANCH  18  19
ATOM     19  CG  HIS A   7      85.517  17.261  16.592  0.00  0.00    +0.082 A 
ATOM     20  CD2 HIS A   7      84.432  16.472  16.396  0.00  0.00    +0.115 A 
ATOM     21  NE2 HIS A   7      83.557  17.173  15.599  0.00  0.00    -0.221 NA
ATOM     22  CE1 HIS A   7      84.080  18.356  15.327  0.00  0.00    +0.199 A 
ATOM     23  ND1 HIS A   7      85.256  18.439  15.923  0.00  0.00    -0.227 NA
ENDBRANCH  18  19
ENDBRANCH  15  18
ENDBRANCH  13  15
ENDBRANCH  10  11
BRANCH  10  24
ATOM     24  CB  TYR A   6      90.466  18.518  20.978  0.00  0.00    +0.055 C 
BRANCH  24  25
ATOM     25  CG  TYR A   6      90.152  19.983  20.785  0.00  0.00    -0.020 A 
ATOM     26  CD2 TYR A   6      90.159  20.866  21.859  0.00  0.00    -0.001 A 
ATOM     27  CE2 TYR A   6      89.867  22.208  21.685  0.00  0.00    +0.036 A 
ATOM     28  CZ  TYR A   6      89.574  22.678  20.426  0.00  0.00    +0.134 A 
ATOM     29  CE1 TYR A   6      89.564  21.825  19.345  0.00  0.00    +0.036 A 
ATOM     30  CD1 TYR A   6      89.851  20.487  19.528  0.00  0.00    -0.001 A 
BRANCH  28  31
ATOM     31  OH  TYR A   6      89.286  24.011  20.241  0.00  0.00    -0.506 OA
ATOM     32  HH  TYR A   6      89.336  24.482  21.110  0.00  0.00    +0.292 HD
ENDBRANCH  28  31
ENDBRANCH  24  25
ENDBRANCH  10  24
ENDBRANCH   8  10
ENDBRANCH   5   6
BRANCH   5  33
ATOM     33  CB  THR A   5      90.380  13.847  23.255  0.00  0.00    +0.137 C 
ATOM     34  CG2 THR A   5      89.794  14.157  24.627  0.00  0.00    +0.034 C 
BRANCH  33  35
ATOM     35  OG1 THR A   5      90.867  12.504  23.226  0.00  0.00    -0.382 OA
ATOM     36  HG1 THR A   5      91.561  12.391  23.923  0.00  0.00    +0.210 HD
ENDBRANCH  33  35
ENDBRANCH   5  33
ENDBRANCH   2   5
BRANCH   1  37
ATOM     37  CA  ASN A   4      89.821  13.004  18.540  0.00  0.00    +0.158 C 
BRANCH  37  40
ATOM     38  C   GLY A   3      90.217  10.646  19.015  0.00  0.00    +0.243 C 
ATOM     39  O   GLY A   3      91.198  10.909  19.712  0.00  0.00    -0.273 OA
ATOM     40  N   ASN A   4      89.463  11.587  18.453  0.00  0.00    -0.297 N 
ATOM     41  H   ASN A   4      88.601  11.310  17.941  0.00  0.00    +0.150 HD
BRANCH  38  42
ATOM     42  CA  GLY A   3      89.811   9.204  18.781  0.00  0.00    +0.176 C 
BRANCH  42  44
ATOM     43  C   LEU A   2      91.375   7.997  17.371  0.00  0.00    +0.241 C 
ATOM     44  N   GLY A   3      90.995   8.389  18.578  0.00  0.00    -0.295 N 
ATOM     45  H   GLY A   3      91.561   8.105  19.403  0.00  0.00    +0.150 HD
ATOM     46  O   LEU A   2      90.658   8.093  16.370  0.00  0.00    -0.273 OA
BRANCH  43  47
ATOM     47  CA  LEU A   2      92.783   7.448  17.272  0.00  0.00    +0.149 C 
BRANCH  47  50
ATOM     48  C   ILE A   1      92.818   5.058  16.813  0.00  0.00    +0.238 C 
ATOM     49  O   ILE A   1      92.694   4.757  18.008  0.00  0.00    -0.274 OA
ATOM     50  N   LEU A   2      92.861   6.309  16.371  0.00  0.00    -0.297 N 
ATOM     51  H   LEU A   2      92.953   6.480  15.349  0.00  0.00    +0.150 HD
BRANCH  48  52
ATOM     52  CA  ILE A   1      92.921   3.990  15.742  0.00  0.00    +0.145 C 
BRANCH  52  53
ATOM     53  N   ILE A   1      93.184   2.690  16.352  0.00  0.00    -0.238 NA
ATOM     54  H   ILE A   1      92.530   2.325  17.074  0.00  0.00    +0.142 HD
ENDBRANCH  52  53
BRANCH  52  55
ATOM     55  CB  ILE A   1      91.634   3.989  14.877  0.00  0.00    +0.025 C 
ATOM     56  CG2 ILE A   1      91.766   2.999  13.714  0.00  0.00    +0.002 C 
BRANCH  55  57
ATOM     57  CG1 ILE A   1      90.403   3.690  15.740  0.00  0.00    +0.002 C 
ATOM     58  CD1 ILE A   1      89.106   3.728  14.966  0.00  0.00    +0.000 C 
ENDBRANCH  55  57
ENDBRANCH  52  55
ENDBRANCH  48  52
ENDBRANCH  47  50
BRANCH  47  59
ATOM     59  CB  LEU A   2      93.674   8.572  16.765  0.00  0.00    +0.029 C 
BRANCH  59  60
ATOM     60  CG  LEU A   2      95.119   8.197  16.480  0.00  0.00    +0.002 C 
ATOM     61  CD2 LEU A   2      95.767   7.667  17.756  0.00  0.00    +0.000 C 
ATOM     62  CD1 LEU A   2      95.862   9.397  15.927  0.00  0.00    +0.000 C 
ENDBRANCH  59  60
ENDBRANCH  47  59
ENDBRANCH  43  47
ENDBRANCH  42  44
ENDBRANCH  38  42
ENDBRANCH  37  40
BRANCH  37  63
ATOM     63  CB  ASN A   4      89.385  13.747  17.271  0.00  0.00    +0.114 C 
BRANCH  63  64
ATOM     64  CG  ASN A   4      89.913  15.190  17.205  0.00  0.00    +0.222 C 
ATOM     65  OD1 ASN A   4      90.256  15.818  18.225  0.00  0.00    -0.275 OA
ATOM     66  ND2 ASN A   4      89.962  15.726  15.994  0.00  0.00    -0.329 N 
ATOM     67 HD21 ASN A   4      90.296  16.703  15.871  0.00  0.00    +0.145 HD
ATOM     68 HD22 ASN A   4      89.667  15.169  15.167  0.00  0.00    +0.145 HD
ENDBRANCH  63  64
ENDBRANCH  37  63
ENDBRANCH   1  37
TORSDOF 27
REMARK  Name = ../refined-set-2016/4kwo/4kwo_pocket.pdb
REMARK  212 active torsions:
REMARK  status: ('A' for Active; 'I' for Inactive)
REMARK    1  A    between atoms: _1  and  _3
REMARK    2  A    between atoms: _3  and  _4
REMARK    3  A    between atoms: _3  and  _6
REMARK    4  A    between atoms: _6  and  _7
REMARK    5  A    between atoms: _7  and  _8
REMARK    6  A    between atoms: _11  and  _12
REMARK    7  A    between atoms: _17  and  _19
REMARK    8  A    between atoms: _19  and  _20
REMARK    9  A    between atoms: _19  and  _22
REMARK   10  A    between atoms: _25  and  _27
REMARK   11  A    between atoms: _27  and  _28
REMARK   12  A    between atoms: _30  and  _32
REMARK   13  A    between atoms: _32  and  _33
REMARK   14  A    between atoms: _32  and  _35
REMARK   15  A    between atoms: _35  and  _36
REMARK   16  A    between atoms: _39  and  _41
REMARK   17  A    between atoms: _41  and  _42
REMARK   18  A    between atoms: _41  and  _44
REMARK   19  A    between atoms: _44  and  _45
REMARK   20  A    between atoms: _48  and  _50
REMARK   21  A    between atoms: _50  and  _51
REMARK   22  A    between atoms: _53  and  _55
REMARK   23  A    between atoms: _55  and  _56
REMARK   24  A    between atoms: _55  and  _58
REMARK   25  A    between atoms: _58  and  _59
REMARK   26  A    between atoms: _64  and  _66
REMARK   27  A    between atoms: _66  and  _67
REMARK   28  A    between atoms: _66  and  _69
REMARK   29  A    between atoms: _69  and  _70
REMARK   30  A    between atoms: _73  and  _75
REMARK   31  A    between atoms: _75  and  _76
REMARK   32  A    between atoms: _75  and  _78
REMARK   33  A    between atoms: _78  and  _79
REMARK   34  A    between atoms: _84  and  _85
REMARK   35  A    between atoms: _87  and  _89
REMARK   36  A    between atoms: _89  and  _90
REMARK   37  A    between atoms: _89  and  _92
REMARK   38  A    between atoms: _92  and  _93
REMARK   39  A    between atoms: _98  and  _100
REMARK   40  A    between atoms: _100  and  _101
REMARK   41  A    between atoms: _100  and  _103
REMARK   42  A    between atoms: _103  and  _104
REMARK   43  A    between atoms: _107  and  _109
REMARK   44  A    between atoms: _109  and  _110
REMARK   45  A    between atoms: _109  and  _112
REMARK   46  A    between atoms: _112  and  _113
REMARK   47  A    between atoms: _116  and  _118
REMARK   48  A    between atoms: _118  and  _119
REMARK   49  A    between atoms: _118  and  _121
REMARK   50  A    between atoms: _121  and  _122
REMARK   51  A    between atoms: _125  and  _127
REMARK   52  A    between atoms: _127  and  _128
REMARK   53  A    between atoms: _127  and  _130
REMARK   54  A    between atoms: _130  and  _131
REMARK   55  A    between atoms: _133  and  _135
REMARK   56  A    between atoms: _135  and  _136
REMARK   57  A    between atoms: _138  and  _140
REMARK   58  A    between atoms: _140  and  _141
REMARK   59  A    between atoms: _143  and  _145
REMARK   60  A    between atoms: _145  and  _146
REMARK   61  A    between atoms: _145  and  _148
REMARK   62  A    between atoms: _148  and  _149
REMARK   63  A    between atoms: _154  and  _155
REMARK   64  A    between atoms: _157  and  _159
REMARK   65  A    between atoms: _159  and  _160
REMARK   66  A    between atoms: _159  and  _162
REMARK   67  A    between atoms: _162  and  _163
REMARK   68  A    between atoms: _163  and  _164
REMARK   69  A    between atoms: _169  and  _171
REMARK   70  A    between atoms: _171  and  _172
REMARK   71  A    between atoms: _171  and  _174
REMARK   72  A    between atoms: _174  and  _175
REMARK   73  A    between atoms: _178  and  _180
REMARK   74  A    between atoms: _180  and  _181
REMARK   75  A    between atoms: _180  and  _183
REMARK   76  A    between atoms: _183  and  _184
REMARK   77  A    between atoms: _184  and  _185
REMARK   78  A    between atoms: _190  and  _192
REMARK   79  A    between atoms: _192  and  _193
REMARK   80  A    between atoms: _192  and  _195
REMARK   81  A    between atoms: _195  and  _196
REMARK   82  A    between atoms: _199  and  _201
REMARK   83  A    between atoms: _201  and  _202
REMARK   84  A    between atoms: _201  and  _204
REMARK   85  A    between atoms: _204  and  _205
REMARK   86  A    between atoms: _205  and  _206
REMARK   87  A    between atoms: _208  and  _210
REMARK   88  A    between atoms: _210  and  _211
REMARK   89  A    between atoms: _214  and  _216
REMARK   90  A    between atoms: _216  and  _217
REMARK   91  A    between atoms: _216  and  _219
REMARK   92  A    between atoms: _219  and  _220
REMARK   93  A    between atoms: _226  and  _228
REMARK   94  A    between atoms: _228  and  _229
REMARK   95  A    between atoms: _228  and  _231
REMARK   96  A    between atoms: _231  and  _232
REMARK   97  A    between atoms: _235  and  _237
REMARK   98  A    between atoms: _237  and  _238
REMARK   99  A    between atoms: _237  and  _240
REMARK  100  A    between atoms: _240  and  _241
REMARK  101  A    between atoms: _241  and  _242
REMARK  102  A    between atoms: _245  and  _247
REMARK  103  A    between atoms: _247  and  _248
REMARK  104  A    between atoms: _247  and  _250
REMARK  105  A    between atoms: _252  and  _254
REMARK  106  A    between atoms: _254  and  _255
REMARK  107  A    between atoms: _254  and  _257
REMARK  108  A    between atoms: _257  and  _258
REMARK  109  A    between atoms: _261  and  _263
REMARK  110  A    between atoms: _263  and  _264
REMARK  111  A    between atoms: _263  and  _266
REMARK  112  A    between atoms: _266  and  _267
REMARK  113  A    between atoms: _269  and  _271
REMARK  114  A    between atoms: _271  and  _272
REMARK  115  A    between atoms: _271  and  _274
REMARK  116  A    between atoms: _274  and  _275
REMARK  117  A    between atoms: _278  and  _280
REMARK  118  A    between atoms: _280  and  _281
REMARK  119  A    between atoms: _280  and  _283
REMARK  120  A    between atoms: _283  and  _284
REMARK  121  A    between atoms: _284  and  _285
REMARK  122  A    between atoms: _290  and  _292
REMARK  123  A    between atoms: _292  and  _293
REMARK  124  A    between atoms: _292  and  _295
REMARK  125  A    between atoms: _295  and  _296
REMARK  126  A    between atoms: _296  and  _297
REMARK  127  A    between atoms: _302  and  _304
REMARK  128  A    between atoms: _304  and  _305
REMARK  129  A    between atoms: _307  and  _309
REMARK  130  A    between atoms: _309  and  _310
REMARK  131  A    between atoms: _309  and  _312
REMARK  132  A    between atoms: _312  and  _313
REMARK  133  A    between atoms: _315  and  _317
REMARK  134  A    between atoms: _317  and  _318
REMARK  135  A    between atoms: _317  and  _320
REMARK  136  A    between atoms: _320  and  _321
REMARK  137  A    between atoms: _321  and  _322
REMARK  138  A    between atoms: _322  and  _323
REMARK  139  A    between atoms: _332  and  _334
REMARK  140  A    between atoms: _334  and  _335
REMARK  141  A    between atoms: _338  and  _340
REMARK  142  A    between atoms: _340  and  _341
REMARK  143  A    between atoms: _340  and  _343
REMARK  144  A    between atoms: _346  and  _348
REMARK  145  A    between atoms: _348  and  _349
REMARK  146  A    between atoms: _351  and  _353
REMARK  147  A    between atoms: _353  and  _354
REMARK  148  A    between atoms: _356  and  _358
REMARK  149  A    between atoms: _358  and  _359
REMARK  150  A    between atoms: _358  and  _361
REMARK  151  A    between atoms: _361  and  _362
REMARK  152  A    between atoms: _365  and  _367
REMARK  153  A    between atoms: _367  and  _368
REMARK  154  A    between atoms: _371  and  _373
REMARK  155  A    between atoms: _373  and  _374
REMARK  156  A    between atoms: _373  and  _376
REMARK  157  A    between atoms: _379  and  _381
REMARK  158  A    between atoms: _381  and  _382
REMARK  159  A    between atoms: _384  and  _386
REMARK  160  A    between atoms: _386  and  _387
REMARK  161  A    between atoms: _386  and  _389
REMARK  162  A    between atoms: _389  and  _390
REMARK  163  A    between atoms: _390  and  _391
REMARK  164  A    between atoms: _394  and  _396
REMARK  165  A    between atoms: _396  and  _397
REMARK  166  A    between atoms: _396  and  _399
REMARK  167  A    between atoms: _399  and  _400
REMARK  168  A    between atoms: _405  and  _406
REMARK  169  A    between atoms: _408  and  _410
REMARK  170  A    between atoms: _410  and  _411
REMARK  171  A    between atoms: _410  and  _413
REMARK  172  A    between atoms: _413  and  _414
REMARK  173  A    between atoms: _417  and  _419
REMARK  174  A    between atoms: _419  and  _420
REMARK  175  A    between atoms: _419  and  _422
REMARK  176  A    between atoms: _422  and  _423
REMARK  177  A    between atoms: _423  and  _424
REMARK  178  A    between atoms: _426  and  _428
REMARK  179  A    between atoms: _428  and  _429
REMARK  180  A    between atoms: _431  and  _433
REMARK  181  A    between atoms: _433  and  _434
REMARK  182  A    between atoms: _433  and  _436
REMARK  183  A    between atoms: _439  and  _441
REMARK  184  A    between atoms: _441  and  _442
REMARK  185  A    between atoms: _444  and  _446
REMARK  186  A    between atoms: _446  and  _447
REMARK  187  A    between atoms: _446  and  _449
REMARK  188  A    between atoms: _449  and  _450
REMARK  189  A    between atoms: _456  and  _458
REMARK  190  A    between atoms: _458  and  _459
REMARK  191  A    between atoms: _458  and  _461
REMARK  192  A    between atoms: _461  and  _462
REMARK  193  A    between atoms: _465  and  _467
REMARK  194  A    between atoms: _467  and  _468
REMARK  195  A    between atoms: _467  and  _470
REMARK  196  A    between atoms: _472  and  _474
REMARK  197  A    between atoms: _474  and  _475
REMARK  198  A    between atoms: _474  and  _477
REMARK  199  A    between atoms: _480  and  _482
REMARK  200  A    between atoms: _482  and  _483
REMARK  201  A    between atoms: _482  and  _485
REMARK  202  A    between atoms: _485  and  _486
REMARK  203  A    between atoms: _489  and  _491
REMARK  204  A    between atoms: _491  and  _492
REMARK  205  A    between atoms: _491  and  _494
REMARK  206  A    between atoms: _494  and  _495
REMARK  207  A    between atoms: _498  and  _500
REMARK  208  A    between atoms: _500  and  _501
REMARK  209  A    between atoms: _500  and  _503
REMARK  210  A    between atoms: _503  and  _504
REMARK  211  A    between atoms: _504  and  _505
REMARK  212  A    between atoms: _505  and  _506
REMARK                            x       y       z     vdW  Elec       q    Type
REMARK                         _______ _______ _______ _____ _____    ______ ____
ROOT
ATOM      1  C   SER A   4      93.617  15.540  26.552  0.00  0.00    +0.243 C 
ATOM      2  O   SER A   4      92.921  16.020  27.434  0.00  0.00    -0.273 OA
ATOM      3  N   GLY A   5      93.817  16.143  25.378  0.00  0.00    -0.295 N 
ATOM      4  H   GLY A   5      94.546  15.774  24.735  0.00  0.00    +0.150 HD
ENDROOT
BRANCH   3   5
ATOM      5  CA  GLY A   5      93.038  17.306  24.976  0.00  0.00    +0.176 C 
BRANCH   5   6
ATOM      6  C   GLY A   5      93.734  18.645  25.075  0.00  0.00    +0.243 C 
ATOM      7  N   GLY A   6      94.733  18.756  25.942  0.00  0.00    -0.295 N 
ATOM      8  H   GLY A   6      95.046  17.918  26.473  0.00  0.00    +0.150 HD
ATOM      9  O   GLY A   5      93.368  19.581  24.364  0.00  0.00    -0.273 OA
BRANCH   7  10
ATOM     10  CA  GLY A   6      95.396  20.031  26.161  0.00  0.00    +0.176 C 
BRANCH  10  11
ATOM     11  C   GLY A   6      96.210  20.546  24.987  0.00  0.00    +0.243 C 
ATOM     12  O   GLY A   6      96.209  21.750  24.725  0.00  0.00    -0.273 OA
ATOM     13  N   TYR A   7      96.911  19.656  24.285  0.00  0.00    -0.297 N 
ATOM     14  H   TYR A   7      96.897  18.655  24.565  0.00  0.00    +0.150 HD
BRANCH  13  15
ATOM     15  CA  TYR A   7      97.700  20.071  23.125  0.00  0.00    +0.153 C 
BRANCH  15  16
ATOM     16  C   TYR A   7      96.808  20.814  22.155  0.00  0.00    +0.241 C 
ATOM     17  N   GLN A   8      95.649  20.222  21.921  0.00  0.00    -0.298 N 
ATOM     18  H   GLN A   8      95.421  19.352  22.442  0.00  0.00    +0.150 HD
ATOM     19  O   TYR A   7      97.148  21.884  21.647  0.00  0.00    -0.273 OA
BRANCH  17  20
ATOM     20  CA  GLN A   8      94.691  20.730  20.977  0.00  0.00    +0.137 C 
BRANCH  20  21
ATOM     21  C   GLN A   8      94.069  22.036  21.474  0.00  0.00    +0.227 C 
ATOM     22  O   GLN A   8      93.908  22.979  20.701  0.00  0.00    -0.286 OA
ENDBRANCH  20  21
BRANCH  20  23
ATOM     23  CB  GLN A   8      93.629  19.662  20.720  0.00  0.00    +0.037 C 
BRANCH  23  24
ATOM     24  CG  GLN A   8      94.153  18.359  20.092  0.00  0.00    +0.087 C 
BRANCH  24  25
ATOM     25  CD  GLN A   8      94.927  17.451  21.060  0.00  0.00    +0.219 C 
ATOM     26  OE1 GLN A   8      94.756  17.501  22.281  0.00  0.00    -0.275 OA
ATOM     27  NE2 GLN A   8      95.778  16.608  20.500  0.00  0.00    -0.329 N 
ATOM     28 HE21 GLN A   8      96.331  15.957  21.093  0.00  0.00    +0.145 HD
ATOM     29 HE22 GLN A   8      95.894  16.596  19.467  0.00  0.00    +0.145 HD
ENDBRANCH  24  25
ENDBRANCH  23  24
ENDBRANCH  20  23
ENDBRANCH  17  20
ENDBRANCH  15  16
BRANCH  15  30
ATOM     30  CB  TYR A   7      98.317  18.861  22.407  0.00  0.00    +0.055 C 
BRANCH  30  31
ATOM     31  CG  TYR A   7      99.059  19.240  21.141  0.00  0.00    -0.020 A 
ATOM     32  CD2 TYR A   7     100.415  19.533  21.172  0.00  0.00    -0.001 A 
ATOM     33  CE2 TYR A   7     101.093  19.892  20.022  0.00  0.00    +0.036 A 
ATOM     34  CZ  TYR A   7     100.415  19.958  18.821  0.00  0.00    +0.134 A 
ATOM     35  CE1 TYR A   7      99.069  19.672  18.765  0.00  0.00    +0.036 A 
ATOM     36  CD1 TYR A   7      98.401  19.313  19.916  0.00  0.00    -0.001 A 
BRANCH  34  37
ATOM     37  OH  TYR A   7     101.085  20.314  17.671  0.00  0.00    -0.506 OA
ATOM     38  HH  TYR A   7     100.678  21.134  17.294  0.00  0.00    +0.292 HD
ENDBRANCH  34  37
ENDBRANCH  30  31
ENDBRANCH  15  30
ENDBRANCH  13  15
ENDBRANCH  10  11
ENDBRANCH   7  10
ENDBRANCH   5   6
ENDBRANCH   3   5
BRANCH   1  39
ATOM     39  CA  SER A   4      94.312  14.196  26.788  0.00  0.00    +0.178 C 
BRANCH  39  41
ATOM     40  C   ASP A   3      94.166  12.871  24.764  0.00  0.00    +0.241 C 
ATOM     41  N   SER A   4      94.888  13.609  25.593  0.00  0.00    -0.295 N 
ATOM     42  H   SER A   4      95.893  13.772  25.382  0.00  0.00    +0.150 HD
ATOM     43  O   ASP A   3      92.953  12.703  24.912  0.00  0.00    -0.273 OA
BRANCH  40  44
ATOM     44  CA  ASP A   3      94.932  12.226  23.605  0.00  0.00    +0.160 C 
BRANCH  44  47
ATOM     45  C   THR A   2      93.864  10.063  23.458  0.00  0.00    +0.243 C 
ATOM     46  O   THR A   2      94.460   9.662  24.454  0.00  0.00    -0.273 OA
ATOM     47  N   ASP A   3      94.092  11.254  22.912  0.00  0.00    -0.296 N 
ATOM     48  H   ASP A   3      93.672  11.493  21.991  0.00  0.00    +0.150 HD
BRANCH  45  49
ATOM     49  CA  THR A   2      92.810   9.195  22.807  0.00  0.00    +0.176 C 
BRANCH  49  51
ATOM     50  C   LEU A   1      93.294   7.091  21.635  0.00  0.00    +0.238 C 
ATOM     51  N   THR A   2      93.236   7.791  22.770  0.00  0.00    -0.295 N 
ATOM     52  H   THR A   2      93.502   7.325  23.661  0.00  0.00    +0.150 HD
ATOM     53  O   LEU A   1      92.928   7.544  20.540  0.00  0.00    -0.274 OA
BRANCH  50  54
ATOM     54  CA  LEU A   1      93.847   5.678  21.741  0.00  0.00    +0.145 C 
BRANCH  54  55
ATOM     55  N   LEU A   1      93.029   4.791  20.915  0.00  0.00    -0.238 NA
ATOM     56  H   LEU A   1      93.098   4.871  19.880  0.00  0.00    +0.142 HD
ENDBRANCH  54  55
BRANCH  54  57
ATOM     57  CB  LEU A   1      95.311   5.649  21.292  0.00  0.00    +0.026 C 
BRANCH  57  58
ATOM     58  CG  LEU A   1      96.337   6.431  22.128  0.00  0.00    +0.002 C 
ATOM     59  CD2 LEU A   1      97.703   5.775  22.062  0.00  0.00    +0.000 C 
ATOM     60  CD1 LEU A   1      96.441   7.870  21.651  0.00  0.00    +0.000 C 
ENDBRANCH  57  58
ENDBRANCH  54  57
ENDBRANCH  50  54
ENDBRANCH  49  51
BRANCH  49  61
ATOM     61  CB  THR A   2      91.513   9.379  23.618  0.00  0.00    +0.137 C 
ATOM     62  CG2 THR A   2      90.328   8.864  22.837  0.00  0.00    +0.034 C 
BRANCH  61  63
ATOM     63  OG1 THR A   2      91.604   8.673  24.863  0.00  0.00    -0.382 OA
ATOM     64  HG1 THR A   2      92.367   9.026  25.386  0.00  0.00    +0.210 HD
ENDBRANCH  61  63
ENDBRANCH  49  61
ENDBRANCH  45  49
ENDBRANCH  44  47
BRANCH  44  65
ATOM     65  CB  ASP A   3      95.439  13.302  22.635  0.00  0.00    +0.143 C 
BRANCH  65  66
ATOM     66  CG  ASP A   3      96.733  13.969  23.106  0.00  0.00    +0.367 C 
ATOM     67  OD2 ASP A   3      97.285  13.573  24.156  0.00  0.00    -0.246 OA
ATOM     68  OD1 ASP A   3      97.207  14.891  22.407  0.00  0.00    -0.246 OA
ENDBRANCH  65  66
ENDBRANCH  44  65
ENDBRANCH  40  44
ENDBRANCH  39  41
BRANCH  39  69
ATOM     69  CB  SER A   4      95.374  14.294  27.885  0.00  0.00    +0.166 C 
BRANCH  69  70
ATOM     70  OG  SER A   4      96.599  14.789  27.372  0.00  0.00    -0.380 OA
ATOM     71  H   SER A   4      96.455  15.691  26.990  0.00  0.00    +0.211 HD
ENDBRANCH  69  70
ENDBRANCH  39  69
ENDBRANCH   1  39
TORSDOF 30
REMARK  Name = ../refined-set-2016/4kwo/4kwo_pocket.pdb
REMARK  212 active torsions:
REMARK  status: ('A' for Active; 'I' for Inactive)
REMARK    1  A    between atoms: _1  and  _3
REMARK    2  A    between atoms: _3  and  _4
REMARK    3  A    between atoms: _3  and  _6
REMARK    4  A    between atoms: _6  and  _7
REMARK    5  A    between atoms: _7  and  _8
REMARK    6  A    between atoms: _11  and  _12
REMARK    7  A    between atoms: _17  and  _19
REMARK    8  A    between atoms: _19  and  _20
REMARK    9  A    between atoms: _19  and  _22
REMARK   10  A    between atoms: _25  and  _27
REMARK   11  A    between atoms: _27  and  _28
REMARK   12  A    between atoms: _30  and  _32
REMARK   13  A    between atoms: _32  and  _33
REMARK   14  A    between atoms: _32  and  _35
REMARK   15  A    between atoms: _35  and  _36
REMARK   16  A    between atoms: _39  and  _41
REMARK   17  A    between atoms: _41  and  _42
REMARK   18  A    between atoms: _41  and  _44
REMARK   19  A    between atoms: _44  and  _45
REMARK   20  A    between atoms: _48  and  _50
REMARK   21  A    between atoms: _50  and  _51
REMARK   22  A    between atoms: _53  and  _55
REMARK   23  A    between atoms: _55  and  _56
REMARK   24  A    between atoms: _55  and  _58
REMARK   25  A    between atoms: _58  and  _59
REMARK   26  A    between atoms: _64  and  _66
REMARK   27  A    between atoms: _66  and  _67
REMARK   28  A    between atoms: _66  and  _69
REMARK   29  A    between atoms: _69  and  _70
REMARK   30  A    between atoms: _73  and  _75
REMARK   31  A    between atoms: _75  and  _76
REMARK   32  A    between atoms: _75  and  _78
REMARK   33  A    between atoms: _78  and  _79
REMARK   34  A    between atoms: _84  and  _85
REMARK   35  A    between atoms: _87  and  _89
REMARK   36  A    between atoms: _89  and  _90
REMARK   37  A    between atoms: _89  and  _92
REMARK   38  A    between atoms: _92  and  _93
REMARK   39  A    between atoms: _98  and  _100
REMARK   40  A    between atoms: _100  and  _101
REMARK   41  A    between atoms: _100  and  _103
REMARK   42  A    between atoms: _103  and  _104
REMARK   43  A    between atoms: _107  and  _109
REMARK   44  A    between atoms: _109  and  _110
REMARK   45  A    between atoms: _109  and  _112
REMARK   46  A    between atoms: _112  and  _113
REMARK   47  A    between atoms: _116  and  _118
REMARK   48  A    between atoms: _118  and  _119
REMARK   49  A    between atoms: _118  and  _121
REMARK   50  A    between atoms: _121  and  _122
REMARK   51  A    between atoms: _125  and  _127
REMARK   52  A    between atoms: _127  and  _128
REMARK   53  A    between atoms: _127  and  _130
REMARK   54  A    between atoms: _130  and  _131
REMARK   55  A    between atoms: _133  and  _135
REMARK   56  A    between atoms: _135  and  _136
REMARK   57  A    between atoms: _138  and  _140
REMARK   58  A    between atoms: _140  and  _141
REMARK   59  A    between atoms: _143  and  _145
REMARK   60  A    between atoms: _145  and  _146
REMARK   61  A    between atoms: _145  and  _148
REMARK   62  A    between atoms: _148  and  _149
REMARK   63  A    between atoms: _154  and  _155
REMARK   64  A    between atoms: _157  and  _159
REMARK   65  A    between atoms: _159  and  _160
REMARK   66  A    between atoms: _159  and  _162
REMARK   67  A    between atoms: _162  and  _163
REMARK   68  A    between atoms: _163  and  _164
REMARK   69  A    between atoms: _169  and  _171
REMARK   70  A    between atoms: _171  and  _172
REMARK   71  A    between atoms: _171  and  _174
REMARK   72  A    between atoms: _174  and  _175
REMARK   73  A    between atoms: _178  and  _180
REMARK   74  A    between atoms: _180  and  _181
REMARK   75  A    between atoms: _180  and  _183
REMARK   76  A    between atoms: _183  and  _184
REMARK   77  A    between atoms: _184  and  _185
REMARK   78  A    between atoms: _190  and  _192
REMARK   79  A    between atoms: _192  and  _193
REMARK   80  A    between atoms: _192  and  _195
REMARK   81  A    between atoms: _195  and  _196
REMARK   82  A    between atoms: _199  and  _201
REMARK   83  A    between atoms: _201  and  _202
REMARK   84  A    between atoms: _201  and  _204
REMARK   85  A    between atoms: _204  and  _205
REMARK   86  A    between atoms: _205  and  _206
REMARK   87  A    between atoms: _208  and  _210
REMARK   88  A    between atoms: _210  and  _211
REMARK   89  A    between atoms: _214  and  _216
REMARK   90  A    between atoms: _216  and  _217
REMARK   91  A    between atoms: _216  and  _219
REMARK   92  A    between atoms: _219  and  _220
REMARK   93  A    between atoms: _226  and  _228
REMARK   94  A    between atoms: _228  and  _229
REMARK   95  A    between atoms: _228  and  _231
REMARK   96  A    between atoms: _231  and  _232
REMARK   97  A    between atoms: _235  and  _237
REMARK   98  A    between atoms: _237  and  _238
REMARK   99  A    between atoms: _237  and  _240
REMARK  100  A    between atoms: _240  and  _241
REMARK  101  A    between atoms: _241  and  _242
REMARK  102  A    between atoms: _245  and  _247
REMARK  103  A    between atoms: _247  and  _248
REMARK  104  A    between atoms: _247  and  _250
REMARK  105  A    between atoms: _252  and  _254
REMARK  106  A    between atoms: _254  and  _255
REMARK  107  A    between atoms: _254  and  _257
REMARK  108  A    between atoms: _257  and  _258
REMARK  109  A    between atoms: _261  and  _263
REMARK  110  A    between atoms: _263  and  _264
REMARK  111  A    between atoms: _263  and  _266
REMARK  112  A    between atoms: _266  and  _267
REMARK  113  A    between atoms: _269  and  _271
REMARK  114  A    between atoms: _271  and  _272
REMARK  115  A    between atoms: _271  and  _274
REMARK  116  A    between atoms: _274  and  _275
REMARK  117  A    between atoms: _278  and  _280
REMARK  118  A    between atoms: _280  and  _281
REMARK  119  A    between atoms: _280  and  _283
REMARK  120  A    between atoms: _283  and  _284
REMARK  121  A    between atoms: _284  and  _285
REMARK  122  A    between atoms: _290  and  _292
REMARK  123  A    between atoms: _292  and  _293
REMARK  124  A    between atoms: _292  and  _295
REMARK  125  A    between atoms: _295  and  _296
REMARK  126  A    between atoms: _296  and  _297
REMARK  127  A    between atoms: _302  and  _304
REMARK  128  A    between atoms: _304  and  _305
REMARK  129  A    between atoms: _307  and  _309
REMARK  130  A    between atoms: _309  and  _310
REMARK  131  A    between atoms: _309  and  _312
REMARK  132  A    between atoms: _312  and  _313
REMARK  133  A    between atoms: _315  and  _317
REMARK  134  A    between atoms: _317  and  _318
REMARK  135  A    between atoms: _317  and  _320
REMARK  136  A    between atoms: _320  and  _321
REMARK  137  A    between atoms: _321  and  _322
REMARK  138  A    between atoms: _322  and  _323
REMARK  139  A    between atoms: _332  and  _334
REMARK  140  A    between atoms: _334  and  _335
REMARK  141  A    between atoms: _338  and  _340
REMARK  142  A    between atoms: _340  and  _341
REMARK  143  A    between atoms: _340  and  _343
REMARK  144  A    between atoms: _346  and  _348
REMARK  145  A    between atoms: _348  and  _349
REMARK  146  A    between atoms: _351  and  _353
REMARK  147  A    between atoms: _353  and  _354
REMARK  148  A    between atoms: _356  and  _358
REMARK  149  A    between atoms: _358  and  _359
REMARK  150  A    between atoms: _358  and  _361
REMARK  151  A    between atoms: _361  and  _362
REMARK  152  A    between atoms: _365  and  _367
REMARK  153  A    between atoms: _367  and  _368
REMARK  154  A    between atoms: _371  and  _373
REMARK  155  A    between atoms: _373  and  _374
REMARK  156  A    between atoms: _373  and  _376
REMARK  157  A    between atoms: _379  and  _381
REMARK  158  A    between atoms: _381  and  _382
REMARK  159  A    between atoms: _384  and  _386
REMARK  160  A    between atoms: _386  and  _387
REMARK  161  A    between atoms: _386  and  _389
REMARK  162  A    between atoms: _389  and  _390
REMARK  163  A    between atoms: _390  and  _391
REMARK  164  A    between atoms: _394  and  _396
REMARK  165  A    between atoms: _396  and  _397
REMARK  166  A    between atoms: _396  and  _399
REMARK  167  A    between atoms: _399  and  _400
REMARK  168  A    between atoms: _405  and  _406
REMARK  169  A    between atoms: _408  and  _410
REMARK  170  A    between atoms: _410  and  _411
REMARK  171  A    between atoms: _410  and  _413
REMARK  172  A    between atoms: _413  and  _414
REMARK  173  A    between atoms: _417  and  _419
REMARK  174  A    between atoms: _419  and  _420
REMARK  175  A    between atoms: _419  and  _422
REMARK  176  A    between atoms: _422  and  _423
REMARK  177  A    between atoms: _423  and  _424
REMARK  178  A    between atoms: _426  and  _428
REMARK  179  A    between atoms: _428  and  _429
REMARK  180  A    between atoms: _431  and  _433
REMARK  181  A    between atoms: _433  and  _434
REMARK  182  A    between atoms: _433  and  _436
REMARK  183  A    between atoms: _439  and  _441
REMARK  184  A    between atoms: _441  and  _442
REMARK  185  A    between atoms: _444  and  _446
REMARK  186  A    between atoms: _446  and  _447
REMARK  187  A    between atoms: _446  and  _449
REMARK  188  A    between atoms: _449  and  _450
REMARK  189  A    between atoms: _456  and  _458
REMARK  190  A    between atoms: _458  and  _459
REMARK  191  A    between atoms: _458  and  _461
REMARK  192  A    between atoms: _461  and  _462
REMARK  193  A    between atoms: _465  and  _467
REMARK  194  A    between atoms: _467  and  _468
REMARK  195  A    between atoms: _467  and  _470
REMARK  196  A    between atoms: _472  and  _474
REMARK  197  A    between atoms: _474  and  _475
REMARK  198  A    between atoms: _474  and  _477
REMARK  199  A    between atoms: _480  and  _482
REMARK  200  A    between atoms: _482  and  _483
REMARK  201  A    between atoms: _482  and  _485
REMARK  202  A    between atoms: _485  and  _486
REMARK  203  A    between atoms: _489  and  _491
REMARK  204  A    between atoms: _491  and  _492
REMARK  205  A    between atoms: _491  and  _494
REMARK  206  A    between atoms: _494  and  _495
REMARK  207  A    between atoms: _498  and  _500
REMARK  208  A    between atoms: _500  and  _501
REMARK  209  A    between atoms: _500  and  _503
REMARK  210  A    between atoms: _503  and  _504
REMARK  211  A    between atoms: _504  and  _505
REMARK  212  A    between atoms: _505  and  _506
REMARK                            x       y       z     vdW  Elec       q    Type
REMARK                         _______ _______ _______ _____ _____    ______ ____
ROOT
ATOM      1  CA  LEU A   1      93.221  25.587  18.393  0.00  0.00    +0.133 C 
ENDROOT
BRANCH   1   2
ATOM      2  N   LEU A   1      94.402  25.236  19.182  0.00  0.00    -0.239 NA
ATOM      3  H   LEU A   1      94.282  24.737  20.086  0.00  0.00    +0.142 HD
ENDBRANCH   1   2
BRANCH   1   4
ATOM      4  C   LEU A   1      92.258  26.598  19.019  0.00  0.00    +0.224 C 
ATOM      5  O   LEU A   1      91.518  27.269  18.302  0.00  0.00    -0.287 OA
ENDBRANCH   1   4
BRANCH   1   6
ATOM      6  CB  LEU A   1      92.449  24.323  18.010  0.00  0.00    +0.025 C 
BRANCH   6   7
ATOM      7  CG  LEU A   1      93.236  23.290  17.204  0.00  0.00    +0.002 C 
ATOM      8  CD2 LEU A   1      92.370  22.079  16.901  0.00  0.00    +0.000 C 
ATOM      9  CD1 LEU A   1      93.768  23.912  15.921  0.00  0.00    +0.000 C 
ENDBRANCH   6   7
ENDBRANCH   1   6
TORSDOF 4
REMARK  Name = ../refined-set-2016/4kwo/4kwo_pocket.pdb
REMARK  212 active torsions:
REMARK  status: ('A' for Active; 'I' for Inactive)
REMARK    1  A    between atoms: _1  and  _3
REMARK    2  A    between atoms: _3  and  _4
REMARK    3  A    between atoms: _3  and  _6
REMARK    4  A    between atoms: _6  and  _7
REMARK    5  A    between atoms: _7  and  _8
REMARK    6  A    between atoms: _11  and  _12
REMARK    7  A    between atoms: _17  and  _19
REMARK    8  A    between atoms: _19  and  _20
REMARK    9  A    between atoms: _19  and  _22
REMARK   10  A    between atoms: _25  and  _27
REMARK   11  A    between atoms: _27  and  _28
REMARK   12  A    between atoms: _30  and  _32
REMARK   13  A    between atoms: _32  and  _33
REMARK   14  A    between atoms: _32  and  _35
REMARK   15  A    between atoms: _35  and  _36
REMARK   16  A    between atoms: _39  and  _41
REMARK   17  A    between atoms: _41  and  _42
REMARK   18  A    between atoms: _41  and  _44
REMARK   19  A    between atoms: _44  and  _45
REMARK   20  A    between atoms: _48  and  _50
REMARK   21  A    between atoms: _50  and  _51
REMARK   22  A    between atoms: _53  and  _55
REMARK   23  A    between atoms: _55  and  _56
REMARK   24  A    between atoms: _55  and  _58
REMARK   25  A    between atoms: _58  and  _59
REMARK   26  A    between atoms: _64  and  _66
REMARK   27  A    between atoms: _66  and  _67
REMARK   28  A    between atoms: _66  and  _69
REMARK   29  A    between atoms: _69  and  _70
REMARK   30  A    between atoms: _73  and  _75
REMARK   31  A    between atoms: _75  and  _76
REMARK   32  A    between atoms: _75  and  _78
REMARK   33  A    between atoms: _78  and  _79
REMARK   34  A    between atoms: _84  and  _85
REMARK   35  A    between atoms: _87  and  _89
REMARK   36  A    between atoms: _89  and  _90
REMARK   37  A    between atoms: _89  and  _92
REMARK   38  A    between atoms: _92  and  _93
REMARK   39  A    between atoms: _98  and  _100
REMARK   40  A    between atoms: _100  and  _101
REMARK   41  A    between atoms: _100  and  _103
REMARK   42  A    between atoms: _103  and  _104
REMARK   43  A    between atoms: _107  and  _109
REMARK   44  A    between atoms: _109  and  _110
REMARK   45  A    between atoms: _109  and  _112
REMARK   46  A    between atoms: _112  and  _113
REMARK   47  A    between atoms: _116  and  _118
REMARK   48  A    between atoms: _118  and  _119
REMARK   49  A    between atoms: _118  and  _121
REMARK   50  A    between atoms: _121  and  _122
REMARK   51  A    between atoms: _125  and  _127
REMARK   52  A    between atoms: _127  and  _128
REMARK   53  A    between atoms: _127  and  _130
REMARK   54  A    between atoms: _130  and  _131
REMARK   55  A    between atoms: _133  and  _135
REMARK   56  A    between atoms: _135  and  _136
REMARK   57  A    between atoms: _138  and  _140
REMARK   58  A    between atoms: _140  and  _141
REMARK   59  A    between atoms: _143  and  _145
REMARK   60  A    between atoms: _145  and  _146
REMARK   61  A    between atoms: _145  and  _148
REMARK   62  A    between atoms: _148  and  _149
REMARK   63  A    between atoms: _154  and  _155
REMARK   64  A    between atoms: _157  and  _159
REMARK   65  A    between atoms: _159  and  _160
REMARK   66  A    between atoms: _159  and  _162
REMARK   67  A    between atoms: _162  and  _163
REMARK   68  A    between atoms: _163  and  _164
REMARK   69  A    between atoms: _169  and  _171
REMARK   70  A    between atoms: _171  and  _172
REMARK   71  A    between atoms: _171  and  _174
REMARK   72  A    between atoms: _174  and  _175
REMARK   73  A    between atoms: _178  and  _180
REMARK   74  A    between atoms: _180  and  _181
REMARK   75  A    between atoms: _180  and  _183
REMARK   76  A    between atoms: _183  and  _184
REMARK   77  A    between atoms: _184  and  _185
REMARK   78  A    between atoms: _190  and  _192
REMARK   79  A    between atoms: _192  and  _193
REMARK   80  A    between atoms: _192  and  _195
REMARK   81  A    between atoms: _195  and  _196
REMARK   82  A    between atoms: _199  and  _201
REMARK   83  A    between atoms: _201  and  _202
REMARK   84  A    between atoms: _201  and  _204
REMARK   85  A    between atoms: _204  and  _205
REMARK   86  A    between atoms: _205  and  _206
REMARK   87  A    between atoms: _208  and  _210
REMARK   88  A    between atoms: _210  and  _211
REMARK   89  A    between atoms: _214  and  _216
REMARK   90  A    between atoms: _216  and  _217
REMARK   91  A    between atoms: _216  and  _219
REMARK   92  A    between atoms: _219  and  _220
REMARK   93  A    between atoms: _226  and  _228
REMARK   94  A    between atoms: _228  and  _229
REMARK   95  A    between atoms: _228  and  _231
REMARK   96  A    between atoms: _231  and  _232
REMARK   97  A    between atoms: _235  and  _237
REMARK   98  A    between atoms: _237  and  _238
REMARK   99  A    between atoms: _237  and  _240
REMARK  100  A    between atoms: _240  and  _241
REMARK  101  A    between atoms: _241  and  _242
REMARK  102  A    between atoms: _245  and  _247
REMARK  103  A    between atoms: _247  and  _248
REMARK  104  A    between atoms: _247  and  _250
REMARK  105  A    between atoms: _252  and  _254
REMARK  106  A    between atoms: _254  and  _255
REMARK  107  A    between atoms: _254  and  _257
REMARK  108  A    between atoms: _257  and  _258
REMARK  109  A    between atoms: _261  and  _263
REMARK  110  A    between atoms: _263  and  _264
REMARK  111  A    between atoms: _263  and  _266
REMARK  112  A    between atoms: _266  and  _267
REMARK  113  A    between atoms: _269  and  _271
REMARK  114  A    between atoms: _271  and  _272
REMARK  115  A    between atoms: _271  and  _274
REMARK  116  A    between atoms: _274  and  _275
REMARK  117  A    between atoms: _278  and  _280
REMARK  118  A    between atoms: _280  and  _281
REMARK  119  A    between atoms: _280  and  _283
REMARK  120  A    between atoms: _283  and  _284
REMARK  121  A    between atoms: _284  and  _285
REMARK  122  A    between atoms: _290  and  _292
REMARK  123  A    between atoms: _292  and  _293
REMARK  124  A    between atoms: _292  and  _295
REMARK  125  A    between atoms: _295  and  _296
REMARK  126  A    between atoms: _296  and  _297
REMARK  127  A    between atoms: _302  and  _304
REMARK  128  A    between atoms: _304  and  _305
REMARK  129  A    between atoms: _307  and  _309
REMARK  130  A    between atoms: _309  and  _310
REMARK  131  A    between atoms: _309  and  _312
REMARK  132  A    between atoms: _312  and  _313
REMARK  133  A    between atoms: _315  and  _317
REMARK  134  A    between atoms: _317  and  _318
REMARK  135  A    between atoms: _317  and  _320
REMARK  136  A    between atoms: _320  and  _321
REMARK  137  A    between atoms: _321  and  _322
REMARK  138  A    between atoms: _322  and  _323
REMARK  139  A    between atoms: _332  and  _334
REMARK  140  A    between atoms: _334  and  _335
REMARK  141  A    between atoms: _338  and  _340
REMARK  142  A    between atoms: _340  and  _341
REMARK  143  A    between atoms: _340  and  _343
REMARK  144  A    between atoms: _346  and  _348
REMARK  145  A    between atoms: _348  and  _349
REMARK  146  A    between atoms: _351  and  _353
REMARK  147  A    between atoms: _353  and  _354
REMARK  148  A    between atoms: _356  and  _358
REMARK  149  A    between atoms: _358  and  _359
REMARK  150  A    between atoms: _358  and  _361
REMARK  151  A    between atoms: _361  and  _362
REMARK  152  A    between atoms: _365  and  _367
REMARK  153  A    between atoms: _367  and  _368
REMARK  154  A    between atoms: _371  and  _373
REMARK  155  A    between atoms: _373  and  _374
REMARK  156  A    between atoms: _373  and  _376
REMARK  157  A    between atoms: _379  and  _381
REMARK  158  A    between atoms: _381  and  _382
REMARK  159  A    between atoms: _384  and  _386
REMARK  160  A    between atoms: _386  and  _387
REMARK  161  A    between atoms: _386  and  _389
REMARK  162  A    between atoms: _389  and  _390
REMARK  163  A    between atoms: _390  and  _391
REMARK  164  A    between atoms: _394  and  _396
REMARK  165  A    between atoms: _396  and  _397
REMARK  166  A    between atoms: _396  and  _399
REMARK  167  A    between atoms: _399  and  _400
REMARK  168  A    between atoms: _405  and  _406
REMARK  169  A    between atoms: _408  and  _410
REMARK  170  A    between atoms: _410  and  _411
REMARK  171  A    between atoms: _410  and  _413
REMARK  172  A    between atoms: _413  and  _414
REMARK  173  A    between atoms: _417  and  _419
REMARK  174  A    between atoms: _419  and  _420
REMARK  175  A    between atoms: _419  and  _422
REMARK  176  A    between atoms: _422  and  _423
REMARK  177  A    between atoms: _423  and  _424
REMARK  178  A    between atoms: _426  and  _428
REMARK  179  A    between atoms: _428  and  _429
REMARK  180  A    between atoms: _431  and  _433
REMARK  181  A    between atoms: _433  and  _434
REMARK  182  A    between atoms: _433  and  _436
REMARK  183  A    between atoms: _439  and  _441
REMARK  184  A    between atoms: _441  and  _442
REMARK  185  A    between atoms: _444  and  _446
REMARK  186  A    between atoms: _446  and  _447
REMARK  187  A    between atoms: _446  and  _449
REMARK  188  A    between atoms: _449  and  _450
REMARK  189  A    between atoms: _456  and  _458
REMARK  190  A    between atoms: _458  and  _459
REMARK  191  A    between atoms: _458  and  _461
REMARK  192  A    between atoms: _461  and  _462
REMARK  193  A    between atoms: _465  and  _467
REMARK  194  A    between atoms: _467  and  _468
REMARK  195  A    between atoms: _467  and  _470
REMARK  196  A    between atoms: _472  and  _474
REMARK  197  A    between atoms: _474  and  _475
REMARK  198  A    between atoms: _474  and  _477
REMARK  199  A    between atoms: _480  and  _482
REMARK  200  A    between atoms: _482  and  _483
REMARK  201  A    between atoms: _482  and  _485
REMARK  202  A    between atoms: _485  and  _486
REMARK  203  A    between atoms: _489  and  _491
REMARK  204  A    between atoms: _491  and  _492
REMARK  205  A    between atoms: _491  and  _494
REMARK  206  A    between atoms: _494  and  _495
REMARK  207  A    between atoms: _498  and  _500
REMARK  208  A    between atoms: _500  and  _501
REMARK  209  A    between atoms: _500  and  _503
REMARK  210  A    between atoms: _503  and  _504
REMARK  211  A    between atoms: _504  and  _505
REMARK  212  A    between atoms: _505  and  _506
REMARK                            x       y       z     vdW  Elec       q    Type
REMARK                         _______ _______ _______ _____ _____    ______ ____
ROOT
ATOM      1  CB  GLN A   1      90.030   9.612  28.137  0.00  0.00    +0.035 C 
ENDROOT
BRANCH   1   2
ATOM      2  CA  GLN A   1      88.509   9.706  28.018  0.00  0.00    +0.134 C 
BRANCH   2   3
ATOM      3  N   GLN A   1      88.007  10.879  28.720  0.00  0.00    -0.239 NA
ATOM      4  H   GLN A   1      88.624  11.400  29.375  0.00  0.00    +0.142 HD
ENDBRANCH   2   3
BRANCH   2   5
ATOM      5  C   GLN A   1      87.799   8.424  28.479  0.00  0.00    +0.224 C 
ATOM      6  O   GLN A   1      87.595   7.502  27.686  0.00  0.00    -0.287 OA
ENDBRANCH   2   5
ENDBRANCH   1   2
BRANCH   1   7
ATOM      7  CG  GLN A   1      90.748  10.780  27.477  0.00  0.00    +0.087 C 
BRANCH   7   8
ATOM      8  CD  GLN A   1      92.249  10.681  27.634  0.00  0.00    +0.219 C 
ATOM      9  NE2 GLN A   1      92.810  11.488  28.533  0.00  0.00    -0.329 N 
ATOM     10 HE21 GLN A   1      92.222  12.157  29.070  0.00  0.00    +0.145 HD
ATOM     11 HE22 GLN A   1      93.836  11.449  28.698  0.00  0.00    +0.145 HD
ATOM     12  OE1 GLN A   1      92.900   9.871  26.972  0.00  0.00    -0.275 OA
ENDBRANCH   7   8
ENDBRANCH   1   7
TORSDOF 5
REMARK  Name = ../refined-set-2016/4kwo/4kwo_pocket.pdb
REMARK  212 active torsions:
REMARK  status: ('A' for Active; 'I' for Inactive)
REMARK    1  A    between atoms: _1  and  _3
REMARK    2  A    between atoms: _3  and  _4
REMARK    3  A    between atoms: _3  and  _6
REMARK    4  A    between atoms: _6  and  _7
REMARK    5  A    between atoms: _7  and  _8
REMARK    6  A    between atoms: _11  and  _12
REMARK    7  A    between atoms: _17  and  _19
REMARK    8  A    between atoms: _19  and  _20
REMARK    9  A    between atoms: _19  and  _22
REMARK   10  A    between atoms: _25  and  _27
REMARK   11  A    between atoms: _27  and  _28
REMARK   12  A    between atoms: _30  and  _32
REMARK   13  A    between atoms: _32  and  _33
REMARK   14  A    between atoms: _32  and  _35
REMARK   15  A    between atoms: _35  and  _36
REMARK   16  A    between atoms: _39  and  _41
REMARK   17  A    between atoms: _41  and  _42
REMARK   18  A    between atoms: _41  and  _44
REMARK   19  A    between atoms: _44  and  _45
REMARK   20  A    between atoms: _48  and  _50
REMARK   21  A    between atoms: _50  and  _51
REMARK   22  A    between atoms: _53  and  _55
REMARK   23  A    between atoms: _55  and  _56
REMARK   24  A    between atoms: _55  and  _58
REMARK   25  A    between atoms: _58  and  _59
REMARK   26  A    between atoms: _64  and  _66
REMARK   27  A    between atoms: _66  and  _67
REMARK   28  A    between atoms: _66  and  _69
REMARK   29  A    between atoms: _69  and  _70
REMARK   30  A    between atoms: _73  and  _75
REMARK   31  A    between atoms: _75  and  _76
REMARK   32  A    between atoms: _75  and  _78
REMARK   33  A    between atoms: _78  and  _79
REMARK   34  A    between atoms: _84  and  _85
REMARK   35  A    between atoms: _87  and  _89
REMARK   36  A    between atoms: _89  and  _90
REMARK   37  A    between atoms: _89  and  _92
REMARK   38  A    between atoms: _92  and  _93
REMARK   39  A    between atoms: _98  and  _100
REMARK   40  A    between atoms: _100  and  _101
REMARK   41  A    between atoms: _100  and  _103
REMARK   42  A    between atoms: _103  and  _104
REMARK   43  A    between atoms: _107  and  _109
REMARK   44  A    between atoms: _109  and  _110
REMARK   45  A    between atoms: _109  and  _112
REMARK   46  A    between atoms: _112  and  _113
REMARK   47  A    between atoms: _116  and  _118
REMARK   48  A    between atoms: _118  and  _119
REMARK   49  A    between atoms: _118  and  _121
REMARK   50  A    between atoms: _121  and  _122
REMARK   51  A    between atoms: _125  and  _127
REMARK   52  A    between atoms: _127  and  _128
REMARK   53  A    between atoms: _127  and  _130
REMARK   54  A    between atoms: _130  and  _131
REMARK   55  A    between atoms: _133  and  _135
REMARK   56  A    between atoms: _135  and  _136
REMARK   57  A    between atoms: _138  and  _140
REMARK   58  A    between atoms: _140  and  _141
REMARK   59  A    between atoms: _143  and  _145
REMARK   60  A    between atoms: _145  and  _146
REMARK   61  A    between atoms: _145  and  _148
REMARK   62  A    between atoms: _148  and  _149
REMARK   63  A    between atoms: _154  and  _155
REMARK   64  A    between atoms: _157  and  _159
REMARK   65  A    between atoms: _159  and  _160
REMARK   66  A    between atoms: _159  and  _162
REMARK   67  A    between atoms: _162  and  _163
REMARK   68  A    between atoms: _163  and  _164
REMARK   69  A    between atoms: _169  and  _171
REMARK   70  A    between atoms: _171  and  _172
REMARK   71  A    between atoms: _171  and  _174
REMARK   72  A    between atoms: _174  and  _175
REMARK   73  A    between atoms: _178  and  _180
REMARK   74  A    between atoms: _180  and  _181
REMARK   75  A    between atoms: _180  and  _183
REMARK   76  A    between atoms: _183  and  _184
REMARK   77  A    between atoms: _184  and  _185
REMARK   78  A    between atoms: _190  and  _192
REMARK   79  A    between atoms: _192  and  _193
REMARK   80  A    between atoms: _192  and  _195
REMARK   81  A    between atoms: _195  and  _196
REMARK   82  A    between atoms: _199  and  _201
REMARK   83  A    between atoms: _201  and  _202
REMARK   84  A    between atoms: _201  and  _204
REMARK   85  A    between atoms: _204  and  _205
REMARK   86  A    between atoms: _205  and  _206
REMARK   87  A    between atoms: _208  and  _210
REMARK   88  A    between atoms: _210  and  _211
REMARK   89  A    between atoms: _214  and  _216
REMARK   90  A    between atoms: _216  and  _217
REMARK   91  A    between atoms: _216  and  _219
REMARK   92  A    between atoms: _219  and  _220
REMARK   93  A    between atoms: _226  and  _228
REMARK   94  A    between atoms: _228  and  _229
REMARK   95  A    between atoms: _228  and  _231
REMARK   96  A    between atoms: _231  and  _232
REMARK   97  A    between atoms: _235  and  _237
REMARK   98  A    between atoms: _237  and  _238
REMARK   99  A    between atoms: _237  and  _240
REMARK  100  A    between atoms: _240  and  _241
REMARK  101  A    between atoms: _241  and  _242
REMARK  102  A    between atoms: _245  and  _247
REMARK  103  A    between atoms: _247  and  _248
REMARK  104  A    between atoms: _247  and  _250
REMARK  105  A    between atoms: _252  and  _254
REMARK  106  A    between atoms: _254  and  _255
REMARK  107  A    between atoms: _254  and  _257
REMARK  108  A    between atoms: _257  and  _258
REMARK  109  A    between atoms: _261  and  _263
REMARK  110  A    between atoms: _263  and  _264
REMARK  111  A    between atoms: _263  and  _266
REMARK  112  A    between atoms: _266  and  _267
REMARK  113  A    between atoms: _269  and  _271
REMARK  114  A    between atoms: _271  and  _272
REMARK  115  A    between atoms: _271  and  _274
REMARK  116  A    between atoms: _274  and  _275
REMARK  117  A    between atoms: _278  and  _280
REMARK  118  A    between atoms: _280  and  _281
REMARK  119  A    between atoms: _280  and  _283
REMARK  120  A    between atoms: _283  and  _284
REMARK  121  A    between atoms: _284  and  _285
REMARK  122  A    between atoms: _290  and  _292
REMARK  123  A    between atoms: _292  and  _293
REMARK  124  A    between atoms: _292  and  _295
REMARK  125  A    between atoms: _295  and  _296
REMARK  126  A    between atoms: _296  and  _297
REMARK  127  A    between atoms: _302  and  _304
REMARK  128  A    between atoms: _304  and  _305
REMARK  129  A    between atoms: _307  and  _309
REMARK  130  A    between atoms: _309  and  _310
REMARK  131  A    between atoms: _309  and  _312
REMARK  132  A    between atoms: _312  and  _313
REMARK  133  A    between atoms: _315  and  _317
REMARK  134  A    between atoms: _317  and  _318
REMARK  135  A    between atoms: _317  and  _320
REMARK  136  A    between atoms: _320  and  _321
REMARK  137  A    between atoms: _321  and  _322
REMARK  138  A    between atoms: _322  and  _323
REMARK  139  A    between atoms: _332  and  _334
REMARK  140  A    between atoms: _334  and  _335
REMARK  141  A    between atoms: _338  and  _340
REMARK  142  A    between atoms: _340  and  _341
REMARK  143  A    between atoms: _340  and  _343
REMARK  144  A    between atoms: _346  and  _348
REMARK  145  A    between atoms: _348  and  _349
REMARK  146  A    between atoms: _351  and  _353
REMARK  147  A    between atoms: _353  and  _354
REMARK  148  A    between atoms: _356  and  _358
REMARK  149  A    between atoms: _358  and  _359
REMARK  150  A    between atoms: _358  and  _361
REMARK  151  A    between atoms: _361  and  _362
REMARK  152  A    between atoms: _365  and  _367
REMARK  153  A    between atoms: _367  and  _368
REMARK  154  A    between atoms: _371  and  _373
REMARK  155  A    between atoms: _373  and  _374
REMARK  156  A    between atoms: _373  and  _376
REMARK  157  A    between atoms: _379  and  _381
REMARK  158  A    between atoms: _381  and  _382
REMARK  159  A    between atoms: _384  and  _386
REMARK  160  A    between atoms: _386  and  _387
REMARK  161  A    between atoms: _386  and  _389
REMARK  162  A    between atoms: _389  and  _390
REMARK  163  A    between atoms: _390  and  _391
REMARK  164  A    between atoms: _394  and  _396
REMARK  165  A    between atoms: _396  and  _397
REMARK  166  A    between atoms: _396  and  _399
REMARK  167  A    between atoms: _399  and  _400
REMARK  168  A    between atoms: _405  and  _406
REMARK  169  A    between atoms: _408  and  _410
REMARK  170  A    between atoms: _410  and  _411
REMARK  171  A    between atoms: _410  and  _413
REMARK  172  A    between atoms: _413  and  _414
REMARK  173  A    between atoms: _417  and  _419
REMARK  174  A    between atoms: _419  and  _420
REMARK  175  A    between atoms: _419  and  _422
REMARK  176  A    between atoms: _422  and  _423
REMARK  177  A    between atoms: _423  and  _424
REMARK  178  A    between atoms: _426  and  _428
REMARK  179  A    between atoms: _428  and  _429
REMARK  180  A    between atoms: _431  and  _433
REMARK  181  A    between atoms: _433  and  _434
REMARK  182  A    between atoms: _433  and  _436
REMARK  183  A    between atoms: _439  and  _441
REMARK  184  A    between atoms: _441  and  _442
REMARK  185  A    between atoms: _444  and  _446
REMARK  186  A    between atoms: _446  and  _447
REMARK  187  A    between atoms: _446  and  _449
REMARK  188  A    between atoms: _449  and  _450
REMARK  189  A    between atoms: _456  and  _458
REMARK  190  A    between atoms: _458  and  _459
REMARK  191  A    between atoms: _458  and  _461
REMARK  192  A    between atoms: _461  and  _462
REMARK  193  A    between atoms: _465  and  _467
REMARK  194  A    between atoms: _467  and  _468
REMARK  195  A    between atoms: _467  and  _470
REMARK  196  A    between atoms: _472  and  _474
REMARK  197  A    between atoms: _474  and  _475
REMARK  198  A    between atoms: _474  and  _477
REMARK  199  A    between atoms: _480  and  _482
REMARK  200  A    between atoms: _482  and  _483
REMARK  201  A    between atoms: _482  and  _485
REMARK  202  A    between atoms: _485  and  _486
REMARK  203  A    between atoms: _489  and  _491
REMARK  204  A    between atoms: _491  and  _492
REMARK  205  A    between atoms: _491  and  _494
REMARK  206  A    between atoms: _494  and  _495
REMARK  207  A    between atoms: _498  and  _500
REMARK  208  A    between atoms: _500  and  _501
REMARK  209  A    between atoms: _500  and  _503
REMARK  210  A    between atoms: _503  and  _504
REMARK  211  A    between atoms: _504  and  _505
REMARK  212  A    between atoms: _505  and  _506
REMARK                            x       y       z     vdW  Elec       q    Type
REMARK                         _______ _______ _______ _____ _____    ______ ____
ROOT
ATOM      1  CA  ILE A   1      94.780   3.768  25.724  0.00  0.00    +0.133 C 
ENDROOT
BRANCH   1   2
ATOM      2  N   ILE A   1      93.552   3.132  25.281  0.00  0.00    -0.239 NA
ATOM      3  H   ILE A   1      93.146   3.395  24.360  0.00  0.00    +0.142 HD
ENDBRANCH   1   2
BRANCH   1   4
ATOM      4  C   ILE A   1      94.493   5.239  25.973  0.00  0.00    +0.224 C 
ATOM      5  O   ILE A   1      94.094   5.981  25.066  0.00  0.00    -0.287 OA
ENDBRANCH   1   4
BRANCH   1   6
ATOM      6  CB  ILE A   1      95.966   3.577  24.752  0.00  0.00    +0.023 C 
ATOM      7  CG2 ILE A   1      97.208   4.267  25.310  0.00  0.00    +0.002 C 
BRANCH   6   8
ATOM      8  CG1 ILE A   1      96.229   2.077  24.545  0.00  0.00    +0.002 C 
ATOM      9  CD1 ILE A   1      97.405   1.751  23.622  0.00  0.00    +0.000 C 
ENDBRANCH   6   8
ENDBRANCH   1   6
TORSDOF 4
REMARK  Name = ../refined-set-2016/4kwo/4kwo_pocket.pdb
REMARK  212 active torsions:
REMARK  status: ('A' for Active; 'I' for Inactive)
REMARK    1  A    between atoms: _1  and  _3
REMARK    2  A    between atoms: _3  and  _4
REMARK    3  A    between atoms: _3  and  _6
REMARK    4  A    between atoms: _6  and  _7
REMARK    5  A    between atoms: _7  and  _8
REMARK    6  A    between atoms: _11  and  _12
REMARK    7  A    between atoms: _17  and  _19
REMARK    8  A    between atoms: _19  and  _20
REMARK    9  A    between atoms: _19  and  _22
REMARK   10  A    between atoms: _25  and  _27
REMARK   11  A    between atoms: _27  and  _28
REMARK   12  A    between atoms: _30  and  _32
REMARK   13  A    between atoms: _32  and  _33
REMARK   14  A    between atoms: _32  and  _35
REMARK   15  A    between atoms: _35  and  _36
REMARK   16  A    between atoms: _39  and  _41
REMARK   17  A    between atoms: _41  and  _42
REMARK   18  A    between atoms: _41  and  _44
REMARK   19  A    between atoms: _44  and  _45
REMARK   20  A    between atoms: _48  and  _50
REMARK   21  A    between atoms: _50  and  _51
REMARK   22  A    between atoms: _53  and  _55
REMARK   23  A    between atoms: _55  and  _56
REMARK   24  A    between atoms: _55  and  _58
REMARK   25  A    between atoms: _58  and  _59
REMARK   26  A    between atoms: _64  and  _66
REMARK   27  A    between atoms: _66  and  _67
REMARK   28  A    between atoms: _66  and  _69
REMARK   29  A    between atoms: _69  and  _70
REMARK   30  A    between atoms: _73  and  _75
REMARK   31  A    between atoms: _75  and  _76
REMARK   32  A    between atoms: _75  and  _78
REMARK   33  A    between atoms: _78  and  _79
REMARK   34  A    between atoms: _84  and  _85
REMARK   35  A    between atoms: _87  and  _89
REMARK   36  A    between atoms: _89  and  _90
REMARK   37  A    between atoms: _89  and  _92
REMARK   38  A    between atoms: _92  and  _93
REMARK   39  A    between atoms: _98  and  _100
REMARK   40  A    between atoms: _100  and  _101
REMARK   41  A    between atoms: _100  and  _103
REMARK   42  A    between atoms: _103  and  _104
REMARK   43  A    between atoms: _107  and  _109
REMARK   44  A    between atoms: _109  and  _110
REMARK   45  A    between atoms: _109  and  _112
REMARK   46  A    between atoms: _112  and  _113
REMARK   47  A    between atoms: _116  and  _118
REMARK   48  A    between atoms: _118  and  _119
REMARK   49  A    between atoms: _118  and  _121
REMARK   50  A    between atoms: _121  and  _122
REMARK   51  A    between atoms: _125  and  _127
REMARK   52  A    between atoms: _127  and  _128
REMARK   53  A    between atoms: _127  and  _130
REMARK   54  A    between atoms: _130  and  _131
REMARK   55  A    between atoms: _133  and  _135
REMARK   56  A    between atoms: _135  and  _136
REMARK   57  A    between atoms: _138  and  _140
REMARK   58  A    between atoms: _140  and  _141
REMARK   59  A    between atoms: _143  and  _145
REMARK   60  A    between atoms: _145  and  _146
REMARK   61  A    between atoms: _145  and  _148
REMARK   62  A    between atoms: _148  and  _149
REMARK   63  A    between atoms: _154  and  _155
REMARK   64  A    between atoms: _157  and  _159
REMARK   65  A    between atoms: _159  and  _160
REMARK   66  A    between atoms: _159  and  _162
REMARK   67  A    between atoms: _162  and  _163
REMARK   68  A    between atoms: _163  and  _164
REMARK   69  A    between atoms: _169  and  _171
REMARK   70  A    between atoms: _171  and  _172
REMARK   71  A    between atoms: _171  and  _174
REMARK   72  A    between atoms: _174  and  _175
REMARK   73  A    between atoms: _178  and  _180
REMARK   74  A    between atoms: _180  and  _181
REMARK   75  A    between atoms: _180  and  _183
REMARK   76  A    between atoms: _183  and  _184
REMARK   77  A    between atoms: _184  and  _185
REMARK   78  A    between atoms: _190  and  _192
REMARK   79  A    between atoms: _192  and  _193
REMARK   80  A    between atoms: _192  and  _195
REMARK   81  A    between atoms: _195  and  _196
REMARK   82  A    between atoms: _199  and  _201
REMARK   83  A    between atoms: _201  and  _202
REMARK   84  A    between atoms: _201  and  _204
REMARK   85  A    between atoms: _204  and  _205
REMARK   86  A    between atoms: _205  and  _206
REMARK   87  A    between atoms: _208  and  _210
REMARK   88  A    between atoms: _210  and  _211
REMARK   89  A    between atoms: _214  and  _216
REMARK   90  A    between atoms: _216  and  _217
REMARK   91  A    between atoms: _216  and  _219
REMARK   92  A    between atoms: _219  and  _220
REMARK   93  A    between atoms: _226  and  _228
REMARK   94  A    between atoms: _228  and  _229
REMARK   95  A    between atoms: _228  and  _231
REMARK   96  A    between atoms: _231  and  _232
REMARK   97  A    between atoms: _235  and  _237
REMARK   98  A    between atoms: _237  and  _238
REMARK   99  A    between atoms: _237  and  _240
REMARK  100  A    between atoms: _240  and  _241
REMARK  101  A    between atoms: _241  and  _242
REMARK  102  A    between atoms: _245  and  _247
REMARK  103  A    between atoms: _247  and  _248
REMARK  104  A    between atoms: _247  and  _250
REMARK  105  A    between atoms: _252  and  _254
REMARK  106  A    between atoms: _254  and  _255
REMARK  107  A    between atoms: _254  and  _257
REMARK  108  A    between atoms: _257  and  _258
REMARK  109  A    between atoms: _261  and  _263
REMARK  110  A    between atoms: _263  and  _264
REMARK  111  A    between atoms: _263  and  _266
REMARK  112  A    between atoms: _266  and  _267
REMARK  113  A    between atoms: _269  and  _271
REMARK  114  A    between atoms: _271  and  _272
REMARK  115  A    between atoms: _271  and  _274
REMARK  116  A    between atoms: _274  and  _275
REMARK  117  A    between atoms: _278  and  _280
REMARK  118  A    between atoms: _280  and  _281
REMARK  119  A    between atoms: _280  and  _283
REMARK  120  A    between atoms: _283  and  _284
REMARK  121  A    between atoms: _284  and  _285
REMARK  122  A    between atoms: _290  and  _292
REMARK  123  A    between atoms: _292  and  _293
REMARK  124  A    between atoms: _292  and  _295
REMARK  125  A    between atoms: _295  and  _296
REMARK  126  A    between atoms: _296  and  _297
REMARK  127  A    between atoms: _302  and  _304
REMARK  128  A    between atoms: _304  and  _305
REMARK  129  A    between atoms: _307  and  _309
REMARK  130  A    between atoms: _309  and  _310
REMARK  131  A    between atoms: _309  and  _312
REMARK  132  A    between atoms: _312  and  _313
REMARK  133  A    between atoms: _315  and  _317
REMARK  134  A    between atoms: _317  and  _318
REMARK  135  A    between atoms: _317  and  _320
REMARK  136  A    between atoms: _320  and  _321
REMARK  137  A    between atoms: _321  and  _322
REMARK  138  A    between atoms: _322  and  _323
REMARK  139  A    between atoms: _332  and  _334
REMARK  140  A    between atoms: _334  and  _335
REMARK  141  A    between atoms: _338  and  _340
REMARK  142  A    between atoms: _340  and  _341
REMARK  143  A    between atoms: _340  and  _343
REMARK  144  A    between atoms: _346  and  _348
REMARK  145  A    between atoms: _348  and  _349
REMARK  146  A    between atoms: _351  and  _353
REMARK  147  A    between atoms: _353  and  _354
REMARK  148  A    between atoms: _356  and  _358
REMARK  149  A    between atoms: _358  and  _359
REMARK  150  A    between atoms: _358  and  _361
REMARK  151  A    between atoms: _361  and  _362
REMARK  152  A    between atoms: _365  and  _367
REMARK  153  A    between atoms: _367  and  _368
REMARK  154  A    between atoms: _371  and  _373
REMARK  155  A    between atoms: _373  and  _374
REMARK  156  A    between atoms: _373  and  _376
REMARK  157  A    between atoms: _379  and  _381
REMARK  158  A    between atoms: _381  and  _382
REMARK  159  A    between atoms: _384  and  _386
REMARK  160  A    between atoms: _386  and  _387
REMARK  161  A    between atoms: _386  and  _389
REMARK  162  A    between atoms: _389  and  _390
REMARK  163  A    between atoms: _390  and  _391
REMARK  164  A    between atoms: _394  and  _396
REMARK  165  A    between atoms: _396  and  _397
REMARK  166  A    between atoms: _396  and  _399
REMARK  167  A    between atoms: _399  and  _400
REMARK  168  A    between atoms: _405  and  _406
REMARK  169  A    between atoms: _408  and  _410
REMARK  170  A    between atoms: _410  and  _411
REMARK  171  A    between atoms: _410  and  _413
REMARK  172  A    between atoms: _413  and  _414
REMARK  173  A    between atoms: _417  and  _419
REMARK  174  A    between atoms: _419  and  _420
REMARK  175  A    between atoms: _419  and  _422
REMARK  176  A    between atoms: _422  and  _423
REMARK  177  A    between atoms: _423  and  _424
REMARK  178  A    between atoms: _426  and  _428
REMARK  179  A    between atoms: _428  and  _429
REMARK  180  A    between atoms: _431  and  _433
REMARK  181  A    between atoms: _433  and  _434
REMARK  182  A    between atoms: _433  and  _436
REMARK  183  A    between atoms: _439  and  _441
REMARK  184  A    between atoms: _441  and  _442
REMARK  185  A    between atoms: _444  and  _446
REMARK  186  A    between atoms: _446  and  _447
REMARK  187  A    between atoms: _446  and  _449
REMARK  188  A    between atoms: _449  and  _450
REMARK  189  A    between atoms: _456  and  _458
REMARK  190  A    between atoms: _458  and  _459
REMARK  191  A    between atoms: _458  and  _461
REMARK  192  A    between atoms: _461  and  _462
REMARK  193  A    between atoms: _465  and  _467
REMARK  194  A    between atoms: _467  and  _468
REMARK  195  A    between atoms: _467  and  _470
REMARK  196  A    between atoms: _472  and  _474
REMARK  197  A    between atoms: _474  and  _475
REMARK  198  A    between atoms: _474  and  _477
REMARK  199  A    between atoms: _480  and  _482
REMARK  200  A    between atoms: _482  and  _483
REMARK  201  A    between atoms: _482  and  _485
REMARK  202  A    between atoms: _485  and  _486
REMARK  203  A    between atoms: _489  and  _491
REMARK  204  A    between atoms: _491  and  _492
REMARK  205  A    between atoms: _491  and  _494
REMARK  206  A    between atoms: _494  and  _495
REMARK  207  A    between atoms: _498  and  _500
REMARK  208  A    between atoms: _500  and  _501
REMARK  209  A    between atoms: _500  and  _503
REMARK  210  A    between atoms: _503  and  _504
REMARK  211  A    between atoms: _504  and  _505
REMARK  212  A    between atoms: _505  and  _506
REMARK                            x       y       z     vdW  Elec       q    Type
REMARK                         _______ _______ _______ _____ _____    ______ ____
ROOT
ATOM      1  CA  ASP A   4     100.175  17.281  30.140  0.00  0.00    +0.160 C 
ENDROOT
BRANCH   1   4
ATOM      2  C   PHE A   3      98.279  16.084  31.127  0.00  0.00    +0.241 C 
ATOM      3  O   PHE A   3      98.706  16.172  32.284  0.00  0.00    -0.273 OA
ATOM      4  N   ASP A   4      98.877  16.626  30.071  0.00  0.00    -0.297 N 
ATOM      5  H   ASP A   4      98.394  16.580  29.151  0.00  0.00    +0.150 HD
BRANCH   2   6
ATOM      6  CA  PHE A   3      97.001  15.318  30.832  0.00  0.00    +0.153 C 
BRANCH   6   8
ATOM      7  C   ALA A   2      97.735  13.045  30.315  0.00  0.00    +0.241 C 
ATOM      8  N   PHE A   3      97.184  13.910  31.162  0.00  0.00    -0.297 N 
ATOM      9  H   PHE A   3      96.872  13.569  32.094  0.00  0.00    +0.150 HD
ATOM     10  O   ALA A   2      98.106  13.352  29.182  0.00  0.00    -0.273 OA
BRANCH   7  11
ATOM     11  CA  ALA A   2      97.933  11.636  30.852  0.00  0.00    +0.149 C 
ATOM     12  CB  ALA A   2      99.271  11.542  31.577  0.00  0.00    +0.031 C 
BRANCH  11  14
ATOM     13  C   MET A   1      96.814  10.581  28.973  0.00  0.00    +0.238 C 
ATOM     14  N   ALA A   2      97.877  10.665  29.767  0.00  0.00    -0.297 N 
ATOM     15  H   ALA A   2      98.683  10.026  29.611  0.00  0.00    +0.150 HD
ATOM     16  O   MET A   1      95.756  11.189  29.201  0.00  0.00    -0.274 OA
BRANCH  13  17
ATOM     17  CA  MET A   1      96.967   9.706  27.722  0.00  0.00    +0.146 C 
BRANCH  17  18
ATOM     18  N   MET A   1      95.771   8.902  27.482  0.00  0.00    -0.238 NA
ATOM     19  H   MET A   1      94.986   9.295  26.924  0.00  0.00    +0.142 HD
ENDBRANCH  17  18
BRANCH  17  20
ATOM     20  CB  MET A   1      97.260  10.610  26.516  0.00  0.00    +0.038 C 
BRANCH  20  21
ATOM     21  CG  MET A   1      97.506   9.869  25.198  0.00  0.00    +0.060 C 
BRANCH  21  22
ATOM     22  SD  MET A   1      98.745   8.545  25.266  0.00  0.00    -0.139 S 
ATOM     23  CE  MET A   1     100.213   9.465  25.700  0.00  0.00    +0.069 C 
ENDBRANCH  21  22
ENDBRANCH  20  21
ENDBRANCH  17  20
ENDBRANCH  13  17
ENDBRANCH  11  14
ENDBRANCH   7  11
ENDBRANCH   6   8
BRANCH   6  24
ATOM     24  CB  PHE A   3      95.836  15.882  31.637  0.00  0.00    +0.055 C 
BRANCH  24  25
ATOM     25  CG  PHE A   3      95.512  17.310  31.309  0.00  0.00    -0.020 A 
ATOM     26  CD2 PHE A   3      95.879  18.331  32.171  0.00  0.00    -0.004 A 
ATOM     27  CE2 PHE A   3      95.578  19.649  31.872  0.00  0.00    -0.000 A 
ATOM     28  CZ  PHE A   3      94.915  19.955  30.702  0.00  0.00    -0.000 A 
ATOM     29  CE1 PHE A   3      94.549  18.951  29.834  0.00  0.00    -0.000 A 
ATOM     30  CD1 PHE A   3      94.839  17.633  30.140  0.00  0.00    -0.004 A 
ENDBRANCH  24  25
ENDBRANCH   6  24
ENDBRANCH   2   6
ENDBRANCH   1   4
BRANCH   1  31
ATOM     31  C   ASP A   4     100.122  18.655  29.498  0.00  0.00    +0.241 C 
ATOM     32  N   GLU A   5     101.251  19.342  29.565  0.00  0.00    -0.297 N 
ATOM     33  H   GLU A   5     102.017  18.993  30.176  0.00  0.00    +0.150 HD
ATOM     34  O   ASP A   4      99.106  19.070  28.942  0.00  0.00    -0.273 OA
BRANCH  32  35
ATOM     35  CA  GLU A   5     101.456  20.564  28.816  0.00  0.00    +0.149 C 
BRANCH  35  36
ATOM     36  C   GLU A   5     102.566  20.342  27.788  0.00  0.00    +0.241 C 
ATOM     37  O   GLU A   5     103.691  19.997  28.142  0.00  0.00    -0.273 OA
ATOM     38  N   CYS A   6     102.238  20.508  26.507  0.00  0.00    -0.296 N 
ATOM     39  H   CYS A   6     101.248  20.697  26.252  0.00  0.00    +0.150 HD
BRANCH  38  40
ATOM     40  CA  CYS A   6     103.245  20.429  25.459  0.00  0.00    +0.160 C 
BRANCH  40  41
ATOM     41  C   CYS A   6     103.957  21.767  25.380  0.00  0.00    +0.242 C 
ATOM     42  N   THR A   7     105.154  21.831  25.942  0.00  0.00    -0.296 N 
ATOM     43  H   THR A   7     105.579  20.965  26.331  0.00  0.00    +0.150 HD
ATOM     44  O   CYS A   6     103.423  22.732  24.836  0.00  0.00    -0.273 OA
BRANCH  42  45
ATOM     45  CA  THR A   7     105.890  23.087  26.028  0.00  0.00    +0.164 C 
BRANCH  45  46
ATOM     46  C   THR A   7     106.154  23.679  24.645  0.00  0.00    +0.229 C 
ATOM     47  O   THR A   7     106.622  22.978  23.754  0.00  0.00    -0.286 OA
ENDBRANCH  45  46
BRANCH  45  48
ATOM     48  CB  THR A   7     107.235  22.845  26.724  0.00  0.00    +0.136 C 
ATOM     49  CG2 THR A   7     107.926  24.154  27.037  0.00  0.00    +0.034 C 
BRANCH  48  50
ATOM     50  OG1 THR A   7     107.008  22.119  27.934  0.00  0.00    -0.382 OA
ATOM     51  HG1 THR A   7     107.873  21.959  28.389  0.00  0.00    +0.210 HD
ENDBRANCH  48  50
ENDBRANCH  45  48
ENDBRANCH  42  45
ENDBRANCH  40  41
BRANCH  40  52
ATOM     52  CB  CYS A   6     102.603  20.108  24.110  0.00  0.00    +0.098 C 
ATOM     53  SG  CYS A   6     103.798  19.954  22.763  0.00  0.00    -0.080 S 
ENDBRANCH  40  52
ENDBRANCH  38  40
ENDBRANCH  35  36
BRANCH  35  54
ATOM     54  CB  GLU A   5     101.823  21.665  29.798  0.00  0.00    +0.041 C 
BRANCH  54  55
ATOM     55  CG  GLU A   5     102.129  22.995  29.199  0.00  0.00    +0.116 C 
BRANCH  55  56
ATOM     56  CD  GLU A   5     102.369  24.021  30.284  0.00  0.00    +0.365 C 
ATOM     57  OE2 GLU A   5     101.418  24.336  31.033  0.00  0.00    -0.246 OA
ATOM     58  OE1 GLU A   5     103.516  24.484  30.412  0.00  0.00    -0.246 OA
ENDBRANCH  55  56
ENDBRANCH  54  55
ENDBRANCH  35  54
ENDBRANCH  32  35
ENDBRANCH   1  31
BRANCH   1  59
ATOM     59  CB  ASP A   4     101.229  16.443  29.405  0.00  0.00    +0.143 C 
BRANCH  59  60
ATOM     60  CG  ASP A   4     100.949  16.319  27.910  0.00  0.00    +0.367 C 
ATOM     61  OD2 ASP A   4      99.767  16.303  27.507  0.00  0.00    -0.246 OA
ATOM     62  OD1 ASP A   4     101.917  16.211  27.133  0.00  0.00    -0.246 OA
ENDBRANCH  59  60
ENDBRANCH   1  59
TORSDOF 27
REMARK  Name = ../refined-set-2016/4kwo/4kwo_pocket.pdb
REMARK  212 active torsions:
REMARK  status: ('A' for Active; 'I' for Inactive)
REMARK    1  A    between atoms: _1  and  _3
REMARK    2  A    between atoms: _3  and  _4
REMARK    3  A    between atoms: _3  and  _6
REMARK    4  A    between atoms: _6  and  _7
REMARK    5  A    between atoms: _7  and  _8
REMARK    6  A    between atoms: _11  and  _12
REMARK    7  A    between atoms: _17  and  _19
REMARK    8  A    between atoms: _19  and  _20
REMARK    9  A    between atoms: _19  and  _22
REMARK   10  A    between atoms: _25  and  _27
REMARK   11  A    between atoms: _27  and  _28
REMARK   12  A    between atoms: _30  and  _32
REMARK   13  A    between atoms: _32  and  _33
REMARK   14  A    between atoms: _32  and  _35
REMARK   15  A    between atoms: _35  and  _36
REMARK   16  A    between atoms: _39  and  _41
REMARK   17  A    between atoms: _41  and  _42
REMARK   18  A    between atoms: _41  and  _44
REMARK   19  A    between atoms: _44  and  _45
REMARK   20  A    between atoms: _48  and  _50
REMARK   21  A    between atoms: _50  and  _51
REMARK   22  A    between atoms: _53  and  _55
REMARK   23  A    between atoms: _55  and  _56
REMARK   24  A    between atoms: _55  and  _58
REMARK   25  A    between atoms: _58  and  _59
REMARK   26  A    between atoms: _64  and  _66
REMARK   27  A    between atoms: _66  and  _67
REMARK   28  A    between atoms: _66  and  _69
REMARK   29  A    between atoms: _69  and  _70
REMARK   30  A    between atoms: _73  and  _75
REMARK   31  A    between atoms: _75  and  _76
REMARK   32  A    between atoms: _75  and  _78
REMARK   33  A    between atoms: _78  and  _79
REMARK   34  A    between atoms: _84  and  _85
REMARK   35  A    between atoms: _87  and  _89
REMARK   36  A    between atoms: _89  and  _90
REMARK   37  A    between atoms: _89  and  _92
REMARK   38  A    between atoms: _92  and  _93
REMARK   39  A    between atoms: _98  and  _100
REMARK   40  A    between atoms: _100  and  _101
REMARK   41  A    between atoms: _100  and  _103
REMARK   42  A    between atoms: _103  and  _104
REMARK   43  A    between atoms: _107  and  _109
REMARK   44  A    between atoms: _109  and  _110
REMARK   45  A    between atoms: _109  and  _112
REMARK   46  A    between atoms: _112  and  _113
REMARK   47  A    between atoms: _116  and  _118
REMARK   48  A    between atoms: _118  and  _119
REMARK   49  A    between atoms: _118  and  _121
REMARK   50  A    between atoms: _121  and  _122
REMARK   51  A    between atoms: _125  and  _127
REMARK   52  A    between atoms: _127  and  _128
REMARK   53  A    between atoms: _127  and  _130
REMARK   54  A    between atoms: _130  and  _131
REMARK   55  A    between atoms: _133  and  _135
REMARK   56  A    between atoms: _135  and  _136
REMARK   57  A    between atoms: _138  and  _140
REMARK   58  A    between atoms: _140  and  _141
REMARK   59  A    between atoms: _143  and  _145
REMARK   60  A    between atoms: _145  and  _146
REMARK   61  A    between atoms: _145  and  _148
REMARK   62  A    between atoms: _148  and  _149
REMARK   63  A    between atoms: _154  and  _155
REMARK   64  A    between atoms: _157  and  _159
REMARK   65  A    between atoms: _159  and  _160
REMARK   66  A    between atoms: _159  and  _162
REMARK   67  A    between atoms: _162  and  _163
REMARK   68  A    between atoms: _163  and  _164
REMARK   69  A    between atoms: _169  and  _171
REMARK   70  A    between atoms: _171  and  _172
REMARK   71  A    between atoms: _171  and  _174
REMARK   72  A    between atoms: _174  and  _175
REMARK   73  A    between atoms: _178  and  _180
REMARK   74  A    between atoms: _180  and  _181
REMARK   75  A    between atoms: _180  and  _183
REMARK   76  A    between atoms: _183  and  _184
REMARK   77  A    between atoms: _184  and  _185
REMARK   78  A    between atoms: _190  and  _192
REMARK   79  A    between atoms: _192  and  _193
REMARK   80  A    between atoms: _192  and  _195
REMARK   81  A    between atoms: _195  and  _196
REMARK   82  A    between atoms: _199  and  _201
REMARK   83  A    between atoms: _201  and  _202
REMARK   84  A    between atoms: _201  and  _204
REMARK   85  A    between atoms: _204  and  _205
REMARK   86  A    between atoms: _205  and  _206
REMARK   87  A    between atoms: _208  and  _210
REMARK   88  A    between atoms: _210  and  _211
REMARK   89  A    between atoms: _214  and  _216
REMARK   90  A    between atoms: _216  and  _217
REMARK   91  A    between atoms: _216  and  _219
REMARK   92  A    between atoms: _219  and  _220
REMARK   93  A    between atoms: _226  and  _228
REMARK   94  A    between atoms: _228  and  _229
REMARK   95  A    between atoms: _228  and  _231
REMARK   96  A    between atoms: _231  and  _232
REMARK   97  A    between atoms: _235  and  _237
REMARK   98  A    between atoms: _237  and  _238
REMARK   99  A    between atoms: _237  and  _240
REMARK  100  A    between atoms: _240  and  _241
REMARK  101  A    between atoms: _241  and  _242
REMARK  102  A    between atoms: _245  and  _247
REMARK  103  A    between atoms: _247  and  _248
REMARK  104  A    between atoms: _247  and  _250
REMARK  105  A    between atoms: _252  and  _254
REMARK  106  A    between atoms: _254  and  _255
REMARK  107  A    between atoms: _254  and  _257
REMARK  108  A    between atoms: _257  and  _258
REMARK  109  A    between atoms: _261  and  _263
REMARK  110  A    between atoms: _263  and  _264
REMARK  111  A    between atoms: _263  and  _266
REMARK  112  A    between atoms: _266  and  _267
REMARK  113  A    between atoms: _269  and  _271
REMARK  114  A    between atoms: _271  and  _272
REMARK  115  A    between atoms: _271  and  _274
REMARK  116  A    between atoms: _274  and  _275
REMARK  117  A    between atoms: _278  and  _280
REMARK  118  A    between atoms: _280  and  _281
REMARK  119  A    between atoms: _280  and  _283
REMARK  120  A    between atoms: _283  and  _284
REMARK  121  A    between atoms: _284  and  _285
REMARK  122  A    between atoms: _290  and  _292
REMARK  123  A    between atoms: _292  and  _293
REMARK  124  A    between atoms: _292  and  _295
REMARK  125  A    between atoms: _295  and  _296
REMARK  126  A    between atoms: _296  and  _297
REMARK  127  A    between atoms: _302  and  _304
REMARK  128  A    between atoms: _304  and  _305
REMARK  129  A    between atoms: _307  and  _309
REMARK  130  A    between atoms: _309  and  _310
REMARK  131  A    between atoms: _309  and  _312
REMARK  132  A    between atoms: _312  and  _313
REMARK  133  A    between atoms: _315  and  _317
REMARK  134  A    between atoms: _317  and  _318
REMARK  135  A    between atoms: _317  and  _320
REMARK  136  A    between atoms: _320  and  _321
REMARK  137  A    between atoms: _321  and  _322
REMARK  138  A    between atoms: _322  and  _323
REMARK  139  A    between atoms: _332  and  _334
REMARK  140  A    between atoms: _334  and  _335
REMARK  141  A    between atoms: _338  and  _340
REMARK  142  A    between atoms: _340  and  _341
REMARK  143  A    between atoms: _340  and  _343
REMARK  144  A    between atoms: _346  and  _348
REMARK  145  A    between atoms: _348  and  _349
REMARK  146  A    between atoms: _351  and  _353
REMARK  147  A    between atoms: _353  and  _354
REMARK  148  A    between atoms: _356  and  _358
REMARK  149  A    between atoms: _358  and  _359
REMARK  150  A    between atoms: _358  and  _361
REMARK  151  A    between atoms: _361  and  _362
REMARK  152  A    between atoms: _365  and  _367
REMARK  153  A    between atoms: _367  and  _368
REMARK  154  A    between atoms: _371  and  _373
REMARK  155  A    between atoms: _373  and  _374
REMARK  156  A    between atoms: _373  and  _376
REMARK  157  A    between atoms: _379  and  _381
REMARK  158  A    between atoms: _381  and  _382
REMARK  159  A    between atoms: _384  and  _386
REMARK  160  A    between atoms: _386  and  _387
REMARK  161  A    between atoms: _386  and  _389
REMARK  162  A    between atoms: _389  and  _390
REMARK  163  A    between atoms: _390  and  _391
REMARK  164  A    between atoms: _394  and  _396
REMARK  165  A    between atoms: _396  and  _397
REMARK  166  A    between atoms: _396  and  _399
REMARK  167  A    between atoms: _399  and  _400
REMARK  168  A    between atoms: _405  and  _406
REMARK  169  A    between atoms: _408  and  _410
REMARK  170  A    between atoms: _410  and  _411
REMARK  171  A    between atoms: _410  and  _413
REMARK  172  A    between atoms: _413  and  _414
REMARK  173  A    between atoms: _417  and  _419
REMARK  174  A    between atoms: _419  and  _420
REMARK  175  A    between atoms: _419  and  _422
REMARK  176  A    between atoms: _422  and  _423
REMARK  177  A    between atoms: _423  and  _424
REMARK  178  A    between atoms: _426  and  _428
REMARK  179  A    between atoms: _428  and  _429
REMARK  180  A    between atoms: _431  and  _433
REMARK  181  A    between atoms: _433  and  _434
REMARK  182  A    between atoms: _433  and  _436
REMARK  183  A    between atoms: _439  and  _441
REMARK  184  A    between atoms: _441  and  _442
REMARK  185  A    between atoms: _444  and  _446
REMARK  186  A    between atoms: _446  and  _447
REMARK  187  A    between atoms: _446  and  _449
REMARK  188  A    between atoms: _449  and  _450
REMARK  189  A    between atoms: _456  and  _458
REMARK  190  A    between atoms: _458  and  _459
REMARK  191  A    between atoms: _458  and  _461
REMARK  192  A    between atoms: _461  and  _462
REMARK  193  A    between atoms: _465  and  _467
REMARK  194  A    between atoms: _467  and  _468
REMARK  195  A    between atoms: _467  and  _470
REMARK  196  A    between atoms: _472  and  _474
REMARK  197  A    between atoms: _474  and  _475
REMARK  198  A    between atoms: _474  and  _477
REMARK  199  A    between atoms: _480  and  _482
REMARK  200  A    between atoms: _482  and  _483
REMARK  201  A    between atoms: _482  and  _485
REMARK  202  A    between atoms: _485  and  _486
REMARK  203  A    between atoms: _489  and  _491
REMARK  204  A    between atoms: _491  and  _492
REMARK  205  A    between atoms: _491  and  _494
REMARK  206  A    between atoms: _494  and  _495
REMARK  207  A    between atoms: _498  and  _500
REMARK  208  A    between atoms: _500  and  _501
REMARK  209  A    between atoms: _500  and  _503
REMARK  210  A    between atoms: _503  and  _504
REMARK  211  A    between atoms: _504  and  _505
REMARK  212  A    between atoms: _505  and  _506
REMARK                            x       y       z     vdW  Elec       q    Type
REMARK                         _______ _______ _______ _____ _____    ______ ____
ROOT
ATOM      1  CA  SER A   1     103.235  18.315  33.706  0.00  0.00    +0.163 C 
ENDROOT
BRANCH   1   2
ATOM      2  N   SER A   1     103.685  19.529  34.386  0.00  0.00    -0.237 NA
ATOM      3  H   SER A   1     104.434  20.112  33.961  0.00  0.00    +0.142 HD
ENDBRANCH   1   2
BRANCH   1   4
ATOM      4  CB  SER A   1     103.414  17.088  34.598  0.00  0.00    +0.227 C 
ATOM      5  OG  SER A   1     102.584  16.186  34.582  0.00  0.00    -0.287 OA
ENDBRANCH   1   4
BRANCH   1   6
ATOM      6  C   SER A   1     103.954  18.117  32.374  0.00  0.00    +0.162 C 
BRANCH   6   7
ATOM      7  O   SER A   1     103.459  19.036  31.420  0.00  0.00    -0.380 OA
ATOM      8  H   SER A   1     103.929  18.902  30.559  0.00  0.00    +0.211 HD
ENDBRANCH   6   7
ENDBRANCH   1   6
TORSDOF 4
REMARK  Name = ../refined-set-2016/4kwo/4kwo_pocket.pdb
REMARK  212 active torsions:
REMARK  status: ('A' for Active; 'I' for Inactive)
REMARK    1  A    between atoms: _1  and  _3
REMARK    2  A    between atoms: _3  and  _4
REMARK    3  A    between atoms: _3  and  _6
REMARK    4  A    between atoms: _6  and  _7
REMARK    5  A    between atoms: _7  and  _8
REMARK    6  A    between atoms: _11  and  _12
REMARK    7  A    between atoms: _17  and  _19
REMARK    8  A    between atoms: _19  and  _20
REMARK    9  A    between atoms: _19  and  _22
REMARK   10  A    between atoms: _25  and  _27
REMARK   11  A    between atoms: _27  and  _28
REMARK   12  A    between atoms: _30  and  _32
REMARK   13  A    between atoms: _32  and  _33
REMARK   14  A    between atoms: _32  and  _35
REMARK   15  A    between atoms: _35  and  _36
REMARK   16  A    between atoms: _39  and  _41
REMARK   17  A    between atoms: _41  and  _42
REMARK   18  A    between atoms: _41  and  _44
REMARK   19  A    between atoms: _44  and  _45
REMARK   20  A    between atoms: _48  and  _50
REMARK   21  A    between atoms: _50  and  _51
REMARK   22  A    between atoms: _53  and  _55
REMARK   23  A    between atoms: _55  and  _56
REMARK   24  A    between atoms: _55  and  _58
REMARK   25  A    between atoms: _58  and  _59
REMARK   26  A    between atoms: _64  and  _66
REMARK   27  A    between atoms: _66  and  _67
REMARK   28  A    between atoms: _66  and  _69
REMARK   29  A    between atoms: _69  and  _70
REMARK   30  A    between atoms: _73  and  _75
REMARK   31  A    between atoms: _75  and  _76
REMARK   32  A    between atoms: _75  and  _78
REMARK   33  A    between atoms: _78  and  _79
REMARK   34  A    between atoms: _84  and  _85
REMARK   35  A    between atoms: _87  and  _89
REMARK   36  A    between atoms: _89  and  _90
REMARK   37  A    between atoms: _89  and  _92
REMARK   38  A    between atoms: _92  and  _93
REMARK   39  A    between atoms: _98  and  _100
REMARK   40  A    between atoms: _100  and  _101
REMARK   41  A    between atoms: _100  and  _103
REMARK   42  A    between atoms: _103  and  _104
REMARK   43  A    between atoms: _107  and  _109
REMARK   44  A    between atoms: _109  and  _110
REMARK   45  A    between atoms: _109  and  _112
REMARK   46  A    between atoms: _112  and  _113
REMARK   47  A    between atoms: _116  and  _118
REMARK   48  A    between atoms: _118  and  _119
REMARK   49  A    between atoms: _118  and  _121
REMARK   50  A    between atoms: _121  and  _122
REMARK   51  A    between atoms: _125  and  _127
REMARK   52  A    between atoms: _127  and  _128
REMARK   53  A    between atoms: _127  and  _130
REMARK   54  A    between atoms: _130  and  _131
REMARK   55  A    between atoms: _133  and  _135
REMARK   56  A    between atoms: _135  and  _136
REMARK   57  A    between atoms: _138  and  _140
REMARK   58  A    between atoms: _140  and  _141
REMARK   59  A    between atoms: _143  and  _145
REMARK   60  A    between atoms: _145  and  _146
REMARK   61  A    between atoms: _145  and  _148
REMARK   62  A    between atoms: _148  and  _149
REMARK   63  A    between atoms: _154  and  _155
REMARK   64  A    between atoms: _157  and  _159
REMARK   65  A    between atoms: _159  and  _160
REMARK   66  A    between atoms: _159  and  _162
REMARK   67  A    between atoms: _162  and  _163
REMARK   68  A    between atoms: _163  and  _164
REMARK   69  A    between atoms: _169  and  _171
REMARK   70  A    between atoms: _171  and  _172
REMARK   71  A    between atoms: _171  and  _174
REMARK   72  A    between atoms: _174  and  _175
REMARK   73  A    between atoms: _178  and  _180
REMARK   74  A    between atoms: _180  and  _181
REMARK   75  A    between atoms: _180  and  _183
REMARK   76  A    between atoms: _183  and  _184
REMARK   77  A    between atoms: _184  and  _185
REMARK   78  A    between atoms: _190  and  _192
REMARK   79  A    between atoms: _192  and  _193
REMARK   80  A    between atoms: _192  and  _195
REMARK   81  A    between atoms: _195  and  _196
REMARK   82  A    between atoms: _199  and  _201
REMARK   83  A    between atoms: _201  and  _202
REMARK   84  A    between atoms: _201  and  _204
REMARK   85  A    between atoms: _204  and  _205
REMARK   86  A    between atoms: _205  and  _206
REMARK   87  A    between atoms: _208  and  _210
REMARK   88  A    between atoms: _210  and  _211
REMARK   89  A    between atoms: _214  and  _216
REMARK   90  A    between atoms: _216  and  _217
REMARK   91  A    between atoms: _216  and  _219
REMARK   92  A    between atoms: _219  and  _220
REMARK   93  A    between atoms: _226  and  _228
REMARK   94  A    between atoms: _228  and  _229
REMARK   95  A    between atoms: _228  and  _231
REMARK   96  A    between atoms: _231  and  _232
REMARK   97  A    between atoms: _235  and  _237
REMARK   98  A    between atoms: _237  and  _238
REMARK   99  A    between atoms: _237  and  _240
REMARK  100  A    between atoms: _240  and  _241
REMARK  101  A    between atoms: _241  and  _242
REMARK  102  A    between atoms: _245  and  _247
REMARK  103  A    between atoms: _247  and  _248
REMARK  104  A    between atoms: _247  and  _250
REMARK  105  A    between atoms: _252  and  _254
REMARK  106  A    between atoms: _254  and  _255
REMARK  107  A    between atoms: _254  and  _257
REMARK  108  A    between atoms: _257  and  _258
REMARK  109  A    between atoms: _261  and  _263
REMARK  110  A    between atoms: _263  and  _264
REMARK  111  A    between atoms: _263  and  _266
REMARK  112  A    between atoms: _266  and  _267
REMARK  113  A    between atoms: _269  and  _271
REMARK  114  A    between atoms: _271  and  _272
REMARK  115  A    between atoms: _271  and  _274
REMARK  116  A    between atoms: _274  and  _275
REMARK  117  A    between atoms: _278  and  _280
REMARK  118  A    between atoms: _280  and  _281
REMARK  119  A    between atoms: _280  and  _283
REMARK  120  A    between atoms: _283  and  _284
REMARK  121  A    between atoms: _284  and  _285
REMARK  122  A    between atoms: _290  and  _292
REMARK  123  A    between atoms: _292  and  _293
REMARK  124  A    between atoms: _292  and  _295
REMARK  125  A    between atoms: _295  and  _296
REMARK  126  A    between atoms: _296  and  _297
REMARK  127  A    between atoms: _302  and  _304
REMARK  128  A    between atoms: _304  and  _305
REMARK  129  A    between atoms: _307  and  _309
REMARK  130  A    between atoms: _309  and  _310
REMARK  131  A    between atoms: _309  and  _312
REMARK  132  A    between atoms: _312  and  _313
REMARK  133  A    between atoms: _315  and  _317
REMARK  134  A    between atoms: _317  and  _318
REMARK  135  A    between atoms: _317  and  _320
REMARK  136  A    between atoms: _320  and  _321
REMARK  137  A    between atoms: _321  and  _322
REMARK  138  A    between atoms: _322  and  _323
REMARK  139  A    between atoms: _332  and  _334
REMARK  140  A    between atoms: _334  and  _335
REMARK  141  A    between atoms: _338  and  _340
REMARK  142  A    between atoms: _340  and  _341
REMARK  143  A    between atoms: _340  and  _343
REMARK  144  A    between atoms: _346  and  _348
REMARK  145  A    between atoms: _348  and  _349
REMARK  146  A    between atoms: _351  and  _353
REMARK  147  A    between atoms: _353  and  _354
REMARK  148  A    between atoms: _356  and  _358
REMARK  149  A    between atoms: _358  and  _359
REMARK  150  A    between atoms: _358  and  _361
REMARK  151  A    between atoms: _361  and  _362
REMARK  152  A    between atoms: _365  and  _367
REMARK  153  A    between atoms: _367  and  _368
REMARK  154  A    between atoms: _371  and  _373
REMARK  155  A    between atoms: _373  and  _374
REMARK  156  A    between atoms: _373  and  _376
REMARK  157  A    between atoms: _379  and  _381
REMARK  158  A    between atoms: _381  and  _382
REMARK  159  A    between atoms: _384  and  _386
REMARK  160  A    between atoms: _386  and  _387
REMARK  161  A    between atoms: _386  and  _389
REMARK  162  A    between atoms: _389  and  _390
REMARK  163  A    between atoms: _390  and  _391
REMARK  164  A    between atoms: _394  and  _396
REMARK  165  A    between atoms: _396  and  _397
REMARK  166  A    between atoms: _396  and  _399
REMARK  167  A    between atoms: _399  and  _400
REMARK  168  A    between atoms: _405  and  _406
REMARK  169  A    between atoms: _408  and  _410
REMARK  170  A    between atoms: _410  and  _411
REMARK  171  A    between atoms: _410  and  _413
REMARK  172  A    between atoms: _413  and  _414
REMARK  173  A    between atoms: _417  and  _419
REMARK  174  A    between atoms: _419  and  _420
REMARK  175  A    between atoms: _419  and  _422
REMARK  176  A    between atoms: _422  and  _423
REMARK  177  A    between atoms: _423  and  _424
REMARK  178  A    between atoms: _426  and  _428
REMARK  179  A    between atoms: _428  and  _429
REMARK  180  A    between atoms: _431  and  _433
REMARK  181  A    between atoms: _433  and  _434
REMARK  182  A    between atoms: _433  and  _436
REMARK  183  A    between atoms: _439  and  _441
REMARK  184  A    between atoms: _441  and  _442
REMARK  185  A    between atoms: _444  and  _446
REMARK  186  A    between atoms: _446  and  _447
REMARK  187  A    between atoms: _446  and  _449
REMARK  188  A    between atoms: _449  and  _450
REMARK  189  A    between atoms: _456  and  _458
REMARK  190  A    between atoms: _458  and  _459
REMARK  191  A    between atoms: _458  and  _461
REMARK  192  A    between atoms: _461  and  _462
REMARK  193  A    between atoms: _465  and  _467
REMARK  194  A    between atoms: _467  and  _468
REMARK  195  A    between atoms: _467  and  _470
REMARK  196  A    between atoms: _472  and  _474
REMARK  197  A    between atoms: _474  and  _475
REMARK  198  A    between atoms: _474  and  _477
REMARK  199  A    between atoms: _480  and  _482
REMARK  200  A    between atoms: _482  and  _483
REMARK  201  A    between atoms: _482  and  _485
REMARK  202  A    between atoms: _485  and  _486
REMARK  203  A    between atoms: _489  and  _491
REMARK  204  A    between atoms: _491  and  _492
REMARK  205  A    between atoms: _491  and  _494
REMARK  206  A    between atoms: _494  and  _495
REMARK  207  A    between atoms: _498  and  _500
REMARK  208  A    between atoms: _500  and  _501
REMARK  209  A    between atoms: _500  and  _503
REMARK  210  A    between atoms: _503  and  _504
REMARK  211  A    between atoms: _504  and  _505
REMARK  212  A    between atoms: _505  and  _506
REMARK                            x       y       z     vdW  Elec       q    Type
REMARK                         _______ _______ _______ _____ _____    ______ ____
ROOT
ATOM      1  C   GLN A   2     107.782  14.308  28.391  0.00  0.00    +0.241 C 
ATOM      2  N   GLN A   3     108.184  15.314  29.168  0.00  0.00    -0.297 N 
ATOM      3  H   GLN A   3     108.344  15.134  30.180  0.00  0.00    +0.150 HD
ATOM      4  O   GLN A   2     107.449  14.459  27.217  0.00  0.00    -0.273 OA
ENDROOT
BRANCH   2   5
ATOM      5  CA  GLN A   3     108.407  16.662  28.646  0.00  0.00    +0.149 C 
BRANCH   5   6
ATOM      6  C   GLN A   3     109.849  17.085  28.950  0.00  0.00    +0.241 C 
ATOM      7  O   GLN A   3     110.699  16.221  29.213  0.00  0.00    -0.273 OA
ATOM      8  N   GLY A   4     110.142  18.386  28.908  0.00  0.00    -0.295 N 
ATOM      9  H   GLY A   4     109.386  19.080  28.742  0.00  0.00    +0.150 HD
BRANCH   8  10
ATOM     10  CA  GLY A   4     111.508  18.840  29.092  0.00  0.00    +0.176 C 
BRANCH  10  11
ATOM     11  C   GLY A   4     112.138  19.507  27.883  0.00  0.00    +0.243 C 
ATOM     12  O   GLY A   4     113.340  19.781  27.886  0.00  0.00    -0.273 OA
ATOM     13  N   SER A   5     111.338  19.766  26.847  0.00  0.00    -0.296 N 
ATOM     14  H   SER A   5     110.345  19.458  26.884  0.00  0.00    +0.150 HD
BRANCH  13  15
ATOM     15  CA  SER A   5     111.822  20.471  25.663  0.00  0.00    +0.166 C 
BRANCH  15  16
ATOM     16  C   SER A   5     113.035  19.741  25.076  0.00  0.00    +0.229 C 
ATOM     17  O   SER A   5     112.999  18.517  24.916  0.00  0.00    -0.286 OA
ENDBRANCH  15  16
BRANCH  15  18
ATOM     18  CB  SER A   5     112.113  21.939  26.004  0.00  0.00    +0.165 C 
BRANCH  18  19
ATOM     19  OG  SER A   5     112.459  22.695  24.857  0.00  0.00    -0.380 OA
ATOM     20  H   SER A   5     111.711  22.671  24.209  0.00  0.00    +0.211 HD
ENDBRANCH  18  19
ENDBRANCH  15  18
ENDBRANCH  13  15
ENDBRANCH  10  11
ENDBRANCH   8  10
ENDBRANCH   5   6
BRANCH   5  21
ATOM     21  CB  GLN A   3     107.360  17.645  29.186  0.00  0.00    +0.039 C 
BRANCH  21  22
ATOM     22  CG  GLN A   3     105.932  17.287  28.772  0.00  0.00    +0.087 C 
BRANCH  22  23
ATOM     23  CD  GLN A   3     105.646  17.575  27.304  0.00  0.00    +0.219 C 
ATOM     24  NE2 GLN A   3     104.558  17.011  26.793  0.00  0.00    -0.329 N 
ATOM     25 HE21 GLN A   3     103.957  16.407  27.389  0.00  0.00    +0.145 HD
ATOM     26 HE22 GLN A   3     104.307  17.173  25.797  0.00  0.00    +0.145 HD
ATOM     27  OE1 GLN A   3     106.390  18.298  26.641  0.00  0.00    -0.275 OA
ENDBRANCH  22  23
ENDBRANCH  21  22
ENDBRANCH   5  21
ENDBRANCH   2   5
BRANCH   1  28
ATOM     28  CA  GLN A   2     107.731  12.928  29.036  0.00  0.00    +0.149 C 
BRANCH  28  31
ATOM     29  C   ILE A   1     105.317  12.582  29.233  0.00  0.00    +0.238 C 
ATOM     30  O   ILE A   1     105.190  13.462  30.096  0.00  0.00    -0.274 OA
ATOM     31  N   GLN A   2     106.486  12.250  28.697  0.00  0.00    -0.297 N 
ATOM     32  H   GLN A   2     106.514  11.473  28.006  0.00  0.00    +0.150 HD
BRANCH  29  33
ATOM     33  CA  ILE A   1     104.120  11.797  28.719  0.00  0.00    +0.145 C 
BRANCH  33  34
ATOM     34  CB  ILE A   1     103.141  12.764  28.027  0.00  0.00    +0.025 C 
ATOM     35  CG2 ILE A   1     103.827  13.461  26.859  0.00  0.00    +0.002 C 
BRANCH  34  36
ATOM     36  CG1 ILE A   1     101.889  12.018  27.564  0.00  0.00    +0.002 C 
ATOM     37  CD1 ILE A   1     100.768  12.915  27.096  0.00  0.00    +0.000 C 
ENDBRANCH  34  36
ENDBRANCH  33  34
BRANCH  33  38
ATOM     38  N   ILE A   1     103.481  11.034  29.795  0.00  0.00    -0.238 NA
ATOM     39  H   ILE A   1     103.106  11.541  30.622  0.00  0.00    +0.142 HD
ENDBRANCH  33  38
ENDBRANCH  29  33
ENDBRANCH  28  31
BRANCH  28  40
ATOM     40  CB  GLN A   2     108.920  12.087  28.561  0.00  0.00    +0.039 C 
BRANCH  40  41
ATOM     41  CG  GLN A   2     110.293  12.624  28.978  0.00  0.00    +0.087 C 
BRANCH  41  42
ATOM     42  CD  GLN A   2     111.402  12.072  28.090  0.00  0.00    +0.219 C 
ATOM     43  NE2 GLN A   2     112.512  11.646  28.696  0.00  0.00    -0.329 N 
ATOM     44 HE21 GLN A   2     112.598  11.712  29.730  0.00  0.00    +0.145 HD
ATOM     45 HE22 GLN A   2     113.291  11.248  28.134  0.00  0.00    +0.145 HD
ATOM     46  OE1 GLN A   2     111.250  12.017  26.869  0.00  0.00    -0.275 OA
ENDBRANCH  41  42
ENDBRANCH  40  41
ENDBRANCH  28  40
ENDBRANCH   1  28
TORSDOF 20
REMARK  Name = ../refined-set-2016/4kwo/4kwo_pocket.pdb
REMARK  212 active torsions:
REMARK  status: ('A' for Active; 'I' for Inactive)
REMARK    1  A    between atoms: _1  and  _3
REMARK    2  A    between atoms: _3  and  _4
REMARK    3  A    between atoms: _3  and  _6
REMARK    4  A    between atoms: _6  and  _7
REMARK    5  A    between atoms: _7  and  _8
REMARK    6  A    between atoms: _11  and  _12
REMARK    7  A    between atoms: _17  and  _19
REMARK    8  A    between atoms: _19  and  _20
REMARK    9  A    between atoms: _19  and  _22
REMARK   10  A    between atoms: _25  and  _27
REMARK   11  A    between atoms: _27  and  _28
REMARK   12  A    between atoms: _30  and  _32
REMARK   13  A    between atoms: _32  and  _33
REMARK   14  A    between atoms: _32  and  _35
REMARK   15  A    between atoms: _35  and  _36
REMARK   16  A    between atoms: _39  and  _41
REMARK   17  A    between atoms: _41  and  _42
REMARK   18  A    between atoms: _41  and  _44
REMARK   19  A    between atoms: _44  and  _45
REMARK   20  A    between atoms: _48  and  _50
REMARK   21  A    between atoms: _50  and  _51
REMARK   22  A    between atoms: _53  and  _55
REMARK   23  A    between atoms: _55  and  _56
REMARK   24  A    between atoms: _55  and  _58
REMARK   25  A    between atoms: _58  and  _59
REMARK   26  A    between atoms: _64  and  _66
REMARK   27  A    between atoms: _66  and  _67
REMARK   28  A    between atoms: _66  and  _69
REMARK   29  A    between atoms: _69  and  _70
REMARK   30  A    between atoms: _73  and  _75
REMARK   31  A    between atoms: _75  and  _76
REMARK   32  A    between atoms: _75  and  _78
REMARK   33  A    between atoms: _78  and  _79
REMARK   34  A    between atoms: _84  and  _85
REMARK   35  A    between atoms: _87  and  _89
REMARK   36  A    between atoms: _89  and  _90
REMARK   37  A    between atoms: _89  and  _92
REMARK   38  A    between atoms: _92  and  _93
REMARK   39  A    between atoms: _98  and  _100
REMARK   40  A    between atoms: _100  and  _101
REMARK   41  A    between atoms: _100  and  _103
REMARK   42  A    between atoms: _103  and  _104
REMARK   43  A    between atoms: _107  and  _109
REMARK   44  A    between atoms: _109  and  _110
REMARK   45  A    between atoms: _109  and  _112
REMARK   46  A    between atoms: _112  and  _113
REMARK   47  A    between atoms: _116  and  _118
REMARK   48  A    between atoms: _118  and  _119
REMARK   49  A    between atoms: _118  and  _121
REMARK   50  A    between atoms: _121  and  _122
REMARK   51  A    between atoms: _125  and  _127
REMARK   52  A    between atoms: _127  and  _128
REMARK   53  A    between atoms: _127  and  _130
REMARK   54  A    between atoms: _130  and  _131
REMARK   55  A    between atoms: _133  and  _135
REMARK   56  A    between atoms: _135  and  _136
REMARK   57  A    between atoms: _138  and  _140
REMARK   58  A    between atoms: _140  and  _141
REMARK   59  A    between atoms: _143  and  _145
REMARK   60  A    between atoms: _145  and  _146
REMARK   61  A    between atoms: _145  and  _148
REMARK   62  A    between atoms: _148  and  _149
REMARK   63  A    between atoms: _154  and  _155
REMARK   64  A    between atoms: _157  and  _159
REMARK   65  A    between atoms: _159  and  _160
REMARK   66  A    between atoms: _159  and  _162
REMARK   67  A    between atoms: _162  and  _163
REMARK   68  A    between atoms: _163  and  _164
REMARK   69  A    between atoms: _169  and  _171
REMARK   70  A    between atoms: _171  and  _172
REMARK   71  A    between atoms: _171  and  _174
REMARK   72  A    between atoms: _174  and  _175
REMARK   73  A    between atoms: _178  and  _180
REMARK   74  A    between atoms: _180  and  _181
REMARK   75  A    between atoms: _180  and  _183
REMARK   76  A    between atoms: _183  and  _184
REMARK   77  A    between atoms: _184  and  _185
REMARK   78  A    between atoms: _190  and  _192
REMARK   79  A    between atoms: _192  and  _193
REMARK   80  A    between atoms: _192  and  _195
REMARK   81  A    between atoms: _195  and  _196
REMARK   82  A    between atoms: _199  and  _201
REMARK   83  A    between atoms: _201  and  _202
REMARK   84  A    between atoms: _201  and  _204
REMARK   85  A    between atoms: _204  and  _205
REMARK   86  A    between atoms: _205  and  _206
REMARK   87  A    between atoms: _208  and  _210
REMARK   88  A    between atoms: _210  and  _211
REMARK   89  A    between atoms: _214  and  _216
REMARK   90  A    between atoms: _216  and  _217
REMARK   91  A    between atoms: _216  and  _219
REMARK   92  A    between atoms: _219  and  _220
REMARK   93  A    between atoms: _226  and  _228
REMARK   94  A    between atoms: _228  and  _229
REMARK   95  A    between atoms: _228  and  _231
REMARK   96  A    between atoms: _231  and  _232
REMARK   97  A    between atoms: _235  and  _237
REMARK   98  A    between atoms: _237  and  _238
REMARK   99  A    between atoms: _237  and  _240
REMARK  100  A    between atoms: _240  and  _241
REMARK  101  A    between atoms: _241  and  _242
REMARK  102  A    between atoms: _245  and  _247
REMARK  103  A    between atoms: _247  and  _248
REMARK  104  A    between atoms: _247  and  _250
REMARK  105  A    between atoms: _252  and  _254
REMARK  106  A    between atoms: _254  and  _255
REMARK  107  A    between atoms: _254  and  _257
REMARK  108  A    between atoms: _257  and  _258
REMARK  109  A    between atoms: _261  and  _263
REMARK  110  A    between atoms: _263  and  _264
REMARK  111  A    between atoms: _263  and  _266
REMARK  112  A    between atoms: _266  and  _267
REMARK  113  A    between atoms: _269  and  _271
REMARK  114  A    between atoms: _271  and  _272
REMARK  115  A    between atoms: _271  and  _274
REMARK  116  A    between atoms: _274  and  _275
REMARK  117  A    between atoms: _278  and  _280
REMARK  118  A    between atoms: _280  and  _281
REMARK  119  A    between atoms: _280  and  _283
REMARK  120  A    between atoms: _283  and  _284
REMARK  121  A    between atoms: _284  and  _285
REMARK  122  A    between atoms: _290  and  _292
REMARK  123  A    between atoms: _292  and  _293
REMARK  124  A    between atoms: _292  and  _295
REMARK  125  A    between atoms: _295  and  _296
REMARK  126  A    between atoms: _296  and  _297
REMARK  127  A    between atoms: _302  and  _304
REMARK  128  A    between atoms: _304  and  _305
REMARK  129  A    between atoms: _307  and  _309
REMARK  130  A    between atoms: _309  and  _310
REMARK  131  A    between atoms: _309  and  _312
REMARK  132  A    between atoms: _312  and  _313
REMARK  133  A    between atoms: _315  and  _317
REMARK  134  A    between atoms: _317  and  _318
REMARK  135  A    between atoms: _317  and  _320
REMARK  136  A    between atoms: _320  and  _321
REMARK  137  A    between atoms: _321  and  _322
REMARK  138  A    between atoms: _322  and  _323
REMARK  139  A    between atoms: _332  and  _334
REMARK  140  A    between atoms: _334  and  _335
REMARK  141  A    between atoms: _338  and  _340
REMARK  142  A    between atoms: _340  and  _341
REMARK  143  A    between atoms: _340  and  _343
REMARK  144  A    between atoms: _346  and  _348
REMARK  145  A    between atoms: _348  and  _349
REMARK  146  A    between atoms: _351  and  _353
REMARK  147  A    between atoms: _353  and  _354
REMARK  148  A    between atoms: _356  and  _358
REMARK  149  A    between atoms: _358  and  _359
REMARK  150  A    between atoms: _358  and  _361
REMARK  151  A    between atoms: _361  and  _362
REMARK  152  A    between atoms: _365  and  _367
REMARK  153  A    between atoms: _367  and  _368
REMARK  154  A    between atoms: _371  and  _373
REMARK  155  A    between atoms: _373  and  _374
REMARK  156  A    between atoms: _373  and  _376
REMARK  157  A    between atoms: _379  and  _381
REMARK  158  A    between atoms: _381  and  _382
REMARK  159  A    between atoms: _384  and  _386
REMARK  160  A    between atoms: _386  and  _387
REMARK  161  A    between atoms: _386  and  _389
REMARK  162  A    between atoms: _389  and  _390
REMARK  163  A    between atoms: _390  and  _391
REMARK  164  A    between atoms: _394  and  _396
REMARK  165  A    between atoms: _396  and  _397
REMARK  166  A    between atoms: _396  and  _399
REMARK  167  A    between atoms: _399  and  _400
REMARK  168  A    between atoms: _405  and  _406
REMARK  169  A    between atoms: _408  and  _410
REMARK  170  A    between atoms: _410  and  _411
REMARK  171  A    between atoms: _410  and  _413
REMARK  172  A    between atoms: _413  and  _414
REMARK  173  A    between atoms: _417  and  _419
REMARK  174  A    between atoms: _419  and  _420
REMARK  175  A    between atoms: _419  and  _422
REMARK  176  A    between atoms: _422  and  _423
REMARK  177  A    between atoms: _423  and  _424
REMARK  178  A    between atoms: _426  and  _428
REMARK  179  A    between atoms: _428  and  _429
REMARK  180  A    between atoms: _431  and  _433
REMARK  181  A    between atoms: _433  and  _434
REMARK  182  A    between atoms: _433  and  _436
REMARK  183  A    between atoms: _439  and  _441
REMARK  184  A    between atoms: _441  and  _442
REMARK  185  A    between atoms: _444  and  _446
REMARK  186  A    between atoms: _446  and  _447
REMARK  187  A    between atoms: _446  and  _449
REMARK  188  A    between atoms: _449  and  _450
REMARK  189  A    between atoms: _456  and  _458
REMARK  190  A    between atoms: _458  and  _459
REMARK  191  A    between atoms: _458  and  _461
REMARK  192  A    between atoms: _461  and  _462
REMARK  193  A    between atoms: _465  and  _467
REMARK  194  A    between atoms: _467  and  _468
REMARK  195  A    between atoms: _467  and  _470
REMARK  196  A    between atoms: _472  and  _474
REMARK  197  A    between atoms: _474  and  _475
REMARK  198  A    between atoms: _474  and  _477
REMARK  199  A    between atoms: _480  and  _482
REMARK  200  A    between atoms: _482  and  _483
REMARK  201  A    between atoms: _482  and  _485
REMARK  202  A    between atoms: _485  and  _486
REMARK  203  A    between atoms: _489  and  _491
REMARK  204  A    between atoms: _491  and  _492
REMARK  205  A    between atoms: _491  and  _494
REMARK  206  A    between atoms: _494  and  _495
REMARK  207  A    between atoms: _498  and  _500
REMARK  208  A    between atoms: _500  and  _501
REMARK  209  A    between atoms: _500  and  _503
REMARK  210  A    between atoms: _503  and  _504
REMARK  211  A    between atoms: _504  and  _505
REMARK  212  A    between atoms: _505  and  _506
REMARK                            x       y       z     vdW  Elec       q    Type
REMARK                         _______ _______ _______ _____ _____    ______ ____
ROOT
ATOM      1  NE  ARG A   1     112.258  15.999  26.090  0.00  0.00    -0.265 N 
ATOM      2  HE  ARG A   1     112.807  16.850  25.853  0.00  0.00    +0.259 HD
ATOM      3  CZ  ARG A   1     111.063  15.860  25.531  0.00  0.00    +0.342 C 
ATOM      4  NH2 ARG A   1     110.331  14.773  25.773  0.00  0.00    -0.292 N 
ATOM      5 HH21 ARG A   1     110.696  14.030  26.402  0.00  0.00    +0.255 HD
ATOM      6 HH22 ARG A   1     109.395  14.668  25.333  0.00  0.00    +0.255 HD
ATOM      7  NH1 ARG A   1     110.606  16.807  24.718  0.00  0.00    -0.292 N 
ATOM      8 HH11 ARG A   1     111.184  17.649  24.524  0.00  0.00    +0.255 HD
ATOM      9 HH12 ARG A   1     109.670  16.706  24.276  0.00  0.00    +0.255 HD
ENDROOT
BRANCH   1  10
ATOM     10  CD  ARG A   1     112.856  15.041  27.014  0.00  0.00    +0.174 C 
BRANCH  10  11
ATOM     11  CG  ARG A   1     114.204  15.540  27.523  0.00  0.00    +0.045 C 
BRANCH  11  12
ATOM     12  CB  ARG A   1     114.724  14.669  28.652  0.00  0.00    +0.029 C 
BRANCH  12  13
ATOM     13  CA  ARG A   1     114.109  14.988  30.017  0.00  0.00    +0.133 C 
BRANCH  13  14
ATOM     14  N   ARG A   1     114.644  16.240  30.543  0.00  0.00    -0.239 NA
ATOM     15  H   ARG A   1     115.391  16.735  30.015  0.00  0.00    +0.142 HD
ENDBRANCH  13  14
BRANCH  13  16
ATOM     16  C   ARG A   1     114.358  13.864  31.016  0.00  0.00    +0.224 C 
ATOM     17  O   ARG A   1     113.492  13.013  31.227  0.00  0.00    -0.287 OA
ENDBRANCH  13  16
ENDBRANCH  12  13
ENDBRANCH  11  12
ENDBRANCH  10  11
ENDBRANCH   1  10
TORSDOF 6
REMARK  Name = ../refined-set-2016/4kwo/4kwo_pocket.pdb
REMARK  212 active torsions:
REMARK  status: ('A' for Active; 'I' for Inactive)
REMARK    1  A    between atoms: _1  and  _3
REMARK    2  A    between atoms: _3  and  _4
REMARK    3  A    between atoms: _3  and  _6
REMARK    4  A    between atoms: _6  and  _7
REMARK    5  A    between atoms: _7  and  _8
REMARK    6  A    between atoms: _11  and  _12
REMARK    7  A    between atoms: _17  and  _19
REMARK    8  A    between atoms: _19  and  _20
REMARK    9  A    between atoms: _19  and  _22
REMARK   10  A    between atoms: _25  and  _27
REMARK   11  A    between atoms: _27  and  _28
REMARK   12  A    between atoms: _30  and  _32
REMARK   13  A    between atoms: _32  and  _33
REMARK   14  A    between atoms: _32  and  _35
REMARK   15  A    between atoms: _35  and  _36
REMARK   16  A    between atoms: _39  and  _41
REMARK   17  A    between atoms: _41  and  _42
REMARK   18  A    between atoms: _41  and  _44
REMARK   19  A    between atoms: _44  and  _45
REMARK   20  A    between atoms: _48  and  _50
REMARK   21  A    between atoms: _50  and  _51
REMARK   22  A    between atoms: _53  and  _55
REMARK   23  A    between atoms: _55  and  _56
REMARK   24  A    between atoms: _55  and  _58
REMARK   25  A    between atoms: _58  and  _59
REMARK   26  A    between atoms: _64  and  _66
REMARK   27  A    between atoms: _66  and  _67
REMARK   28  A    between atoms: _66  and  _69
REMARK   29  A    between atoms: _69  and  _70
REMARK   30  A    between atoms: _73  and  _75
REMARK   31  A    between atoms: _75  and  _76
REMARK   32  A    between atoms: _75  and  _78
REMARK   33  A    between atoms: _78  and  _79
REMARK   34  A    between atoms: _84  and  _85
REMARK   35  A    between atoms: _87  and  _89
REMARK   36  A    between atoms: _89  and  _90
REMARK   37  A    between atoms: _89  and  _92
REMARK   38  A    between atoms: _92  and  _93
REMARK   39  A    between atoms: _98  and  _100
REMARK   40  A    between atoms: _100  and  _101
REMARK   41  A    between atoms: _100  and  _103
REMARK   42  A    between atoms: _103  and  _104
REMARK   43  A    between atoms: _107  and  _109
REMARK   44  A    between atoms: _109  and  _110
REMARK   45  A    between atoms: _109  and  _112
REMARK   46  A    between atoms: _112  and  _113
REMARK   47  A    between atoms: _116  and  _118
REMARK   48  A    between atoms: _118  and  _119
REMARK   49  A    between atoms: _118  and  _121
REMARK   50  A    between atoms: _121  and  _122
REMARK   51  A    between atoms: _125  and  _127
REMARK   52  A    between atoms: _127  and  _128
REMARK   53  A    between atoms: _127  and  _130
REMARK   54  A    between atoms: _130  and  _131
REMARK   55  A    between atoms: _133  and  _135
REMARK   56  A    between atoms: _135  and  _136
REMARK   57  A    between atoms: _138  and  _140
REMARK   58  A    between atoms: _140  and  _141
REMARK   59  A    between atoms: _143  and  _145
REMARK   60  A    between atoms: _145  and  _146
REMARK   61  A    between atoms: _145  and  _148
REMARK   62  A    between atoms: _148  and  _149
REMARK   63  A    between atoms: _154  and  _155
REMARK   64  A    between atoms: _157  and  _159
REMARK   65  A    between atoms: _159  and  _160
REMARK   66  A    between atoms: _159  and  _162
REMARK   67  A    between atoms: _162  and  _163
REMARK   68  A    between atoms: _163  and  _164
REMARK   69  A    between atoms: _169  and  _171
REMARK   70  A    between atoms: _171  and  _172
REMARK   71  A    between atoms: _171  and  _174
REMARK   72  A    between atoms: _174  and  _175
REMARK   73  A    between atoms: _178  and  _180
REMARK   74  A    between atoms: _180  and  _181
REMARK   75  A    between atoms: _180  and  _183
REMARK   76  A    between atoms: _183  and  _184
REMARK   77  A    between atoms: _184  and  _185
REMARK   78  A    between atoms: _190  and  _192
REMARK   79  A    between atoms: _192  and  _193
REMARK   80  A    between atoms: _192  and  _195
REMARK   81  A    between atoms: _195  and  _196
REMARK   82  A    between atoms: _199  and  _201
REMARK   83  A    between atoms: _201  and  _202
REMARK   84  A    between atoms: _201  and  _204
REMARK   85  A    between atoms: _204  and  _205
REMARK   86  A    between atoms: _205  and  _206
REMARK   87  A    between atoms: _208  and  _210
REMARK   88  A    between atoms: _210  and  _211
REMARK   89  A    between atoms: _214  and  _216
REMARK   90  A    between atoms: _216  and  _217
REMARK   91  A    between atoms: _216  and  _219
REMARK   92  A    between atoms: _219  and  _220
REMARK   93  A    between atoms: _226  and  _228
REMARK   94  A    between atoms: _228  and  _229
REMARK   95  A    between atoms: _228  and  _231
REMARK   96  A    between atoms: _231  and  _232
REMARK   97  A    between atoms: _235  and  _237
REMARK   98  A    between atoms: _237  and  _238
REMARK   99  A    between atoms: _237  and  _240
REMARK  100  A    between atoms: _240  and  _241
REMARK  101  A    between atoms: _241  and  _242
REMARK  102  A    between atoms: _245  and  _247
REMARK  103  A    between atoms: _247  and  _248
REMARK  104  A    between atoms: _247  and  _250
REMARK  105  A    between atoms: _252  and  _254
REMARK  106  A    between atoms: _254  and  _255
REMARK  107  A    between atoms: _254  and  _257
REMARK  108  A    between atoms: _257  and  _258
REMARK  109  A    between atoms: _261  and  _263
REMARK  110  A    between atoms: _263  and  _264
REMARK  111  A    between atoms: _263  and  _266
REMARK  112  A    between atoms: _266  and  _267
REMARK  113  A    between atoms: _269  and  _271
REMARK  114  A    between atoms: _271  and  _272
REMARK  115  A    between atoms: _271  and  _274
REMARK  116  A    between atoms: _274  and  _275
REMARK  117  A    between atoms: _278  and  _280
REMARK  118  A    between atoms: _280  and  _281
REMARK  119  A    between atoms: _280  and  _283
REMARK  120  A    between atoms: _283  and  _284
REMARK  121  A    between atoms: _284  and  _285
REMARK  122  A    between atoms: _290  and  _292
REMARK  123  A    between atoms: _292  and  _293
REMARK  124  A    between atoms: _292  and  _295
REMARK  125  A    between atoms: _295  and  _296
REMARK  126  A    between atoms: _296  and  _297
REMARK  127  A    between atoms: _302  and  _304
REMARK  128  A    between atoms: _304  and  _305
REMARK  129  A    between atoms: _307  and  _309
REMARK  130  A    between atoms: _309  and  _310
REMARK  131  A    between atoms: _309  and  _312
REMARK  132  A    between atoms: _312  and  _313
REMARK  133  A    between atoms: _315  and  _317
REMARK  134  A    between atoms: _317  and  _318
REMARK  135  A    between atoms: _317  and  _320
REMARK  136  A    between atoms: _320  and  _321
REMARK  137  A    between atoms: _321  and  _322
REMARK  138  A    between atoms: _322  and  _323
REMARK  139  A    between atoms: _332  and  _334
REMARK  140  A    between atoms: _334  and  _335
REMARK  141  A    between atoms: _338  and  _340
REMARK  142  A    between atoms: _340  and  _341
REMARK  143  A    between atoms: _340  and  _343
REMARK  144  A    between atoms: _346  and  _348
REMARK  145  A    between atoms: _348  and  _349
REMARK  146  A    between atoms: _351  and  _353
REMARK  147  A    between atoms: _353  and  _354
REMARK  148  A    between atoms: _356  and  _358
REMARK  149  A    between atoms: _358  and  _359
REMARK  150  A    between atoms: _358  and  _361
REMARK  151  A    between atoms: _361  and  _362
REMARK  152  A    between atoms: _365  and  _367
REMARK  153  A    between atoms: _367  and  _368
REMARK  154  A    between atoms: _371  and  _373
REMARK  155  A    between atoms: _373  and  _374
REMARK  156  A    between atoms: _373  and  _376
REMARK  157  A    between atoms: _379  and  _381
REMARK  158  A    between atoms: _381  and  _382
REMARK  159  A    between atoms: _384  and  _386
REMARK  160  A    between atoms: _386  and  _387
REMARK  161  A    between atoms: _386  and  _389
REMARK  162  A    between atoms: _389  and  _390
REMARK  163  A    between atoms: _390  and  _391
REMARK  164  A    between atoms: _394  and  _396
REMARK  165  A    between atoms: _396  and  _397
REMARK  166  A    between atoms: _396  and  _399
REMARK  167  A    between atoms: _399  and  _400
REMARK  168  A    between atoms: _405  and  _406
REMARK  169  A    between atoms: _408  and  _410
REMARK  170  A    between atoms: _410  and  _411
REMARK  171  A    between atoms: _410  and  _413
REMARK  172  A    between atoms: _413  and  _414
REMARK  173  A    between atoms: _417  and  _419
REMARK  174  A    between atoms: _419  and  _420
REMARK  175  A    between atoms: _419  and  _422
REMARK  176  A    between atoms: _422  and  _423
REMARK  177  A    between atoms: _423  and  _424
REMARK  178  A    between atoms: _426  and  _428
REMARK  179  A    between atoms: _428  and  _429
REMARK  180  A    between atoms: _431  and  _433
REMARK  181  A    between atoms: _433  and  _434
REMARK  182  A    between atoms: _433  and  _436
REMARK  183  A    between atoms: _439  and  _441
REMARK  184  A    between atoms: _441  and  _442
REMARK  185  A    between atoms: _444  and  _446
REMARK  186  A    between atoms: _446  and  _447
REMARK  187  A    between atoms: _446  and  _449
REMARK  188  A    between atoms: _449  and  _450
REMARK  189  A    between atoms: _456  and  _458
REMARK  190  A    between atoms: _458  and  _459
REMARK  191  A    between atoms: _458  and  _461
REMARK  192  A    between atoms: _461  and  _462
REMARK  193  A    between atoms: _465  and  _467
REMARK  194  A    between atoms: _467  and  _468
REMARK  195  A    between atoms: _467  and  _470
REMARK  196  A    between atoms: _472  and  _474
REMARK  197  A    between atoms: _474  and  _475
REMARK  198  A    between atoms: _474  and  _477
REMARK  199  A    between atoms: _480  and  _482
REMARK  200  A    between atoms: _482  and  _483
REMARK  201  A    between atoms: _482  and  _485
REMARK  202  A    between atoms: _485  and  _486
REMARK  203  A    between atoms: _489  and  _491
REMARK  204  A    between atoms: _491  and  _492
REMARK  205  A    between atoms: _491  and  _494
REMARK  206  A    between atoms: _494  and  _495
REMARK  207  A    between atoms: _498  and  _500
REMARK  208  A    between atoms: _500  and  _501
REMARK  209  A    between atoms: _500  and  _503
REMARK  210  A    between atoms: _503  and  _504
REMARK  211  A    between atoms: _504  and  _505
REMARK  212  A    between atoms: _505  and  _506
REMARK                            x       y       z     vdW  Elec       q    Type
REMARK                         _______ _______ _______ _____ _____    ______ ____
ROOT
ATOM      1  CA  LEU A   5     108.422  17.241  19.862  0.00  0.00    +0.149 C 
ENDROOT
BRANCH   1   4
ATOM      2  C   GLY A   4     107.864  18.181  22.038  0.00  0.00    +0.243 C 
ATOM      3  O   GLY A   4     108.674  19.093  21.900  0.00  0.00    -0.273 OA
ATOM      4  N   LEU A   5     107.696  17.220  21.130  0.00  0.00    -0.297 N 
ATOM      5  H   LEU A   5     107.036  16.441  21.328  0.00  0.00    +0.150 HD
BRANCH   2   6
ATOM      6  CA  GLY A   4     107.020  18.123  23.295  0.00  0.00    +0.176 C 
BRANCH   6   9
ATOM      7  C   GLY A   3     106.878  15.789  23.905  0.00  0.00    +0.243 C 
ATOM      8  O   GLY A   3     108.097  15.687  24.007  0.00  0.00    -0.273 OA
ATOM      9  N   GLY A   4     106.279  16.890  23.467  0.00  0.00    -0.295 N 
ATOM     10  H   GLY A   4     105.263  16.867  23.244  0.00  0.00    +0.150 HD
BRANCH   7  11
ATOM     11  CA  GLY A   3     105.969  14.628  24.239  0.00  0.00    +0.176 C 
BRANCH  11  13
ATOM     12  C   VAL A   2     107.020  12.500  23.719  0.00  0.00    +0.241 C 
ATOM     13  N   GLY A   3     106.704  13.433  24.612  0.00  0.00    -0.295 N 
ATOM     14  H   GLY A   3     106.991  13.303  25.603  0.00  0.00    +0.150 HD
ATOM     15  O   VAL A   2     106.608  12.511  22.548  0.00  0.00    -0.273 OA
BRANCH  12  16
ATOM     16  CA  VAL A   2     107.852  11.341  24.246  0.00  0.00    +0.148 C 
BRANCH  16  19
ATOM     17  C   ALA A   1     106.323   9.914  25.478  0.00  0.00    +0.238 C 
ATOM     18  O   ALA A   1     106.614  10.420  26.573  0.00  0.00    -0.274 OA
ATOM     19  N   VAL A   2     106.961  10.201  24.353  0.00  0.00    -0.297 N 
ATOM     20  H   VAL A   2     106.819   9.591  23.522  0.00  0.00    +0.150 HD
BRANCH  17  21
ATOM     21  CA  ALA A   1     105.205   8.896  25.363  0.00  0.00    +0.145 C 
ATOM     22  CB  ALA A   1     103.894   9.574  25.082  0.00  0.00    +0.028 C 
BRANCH  21  23
ATOM     23  N   ALA A   1     105.112   8.093  26.566  0.00  0.00    -0.238 NA
ATOM     24  H   ALA A   1     104.621   8.476  27.399  0.00  0.00    +0.142 HD
ENDBRANCH  21  23
ENDBRANCH  17  21
ENDBRANCH  16  19
BRANCH  16  25
ATOM     25  CB  VAL A   2     109.041  11.053  23.321  0.00  0.00    +0.027 C 
ATOM     26  CG2 VAL A   2     109.838   9.863  23.849  0.00  0.00    +0.002 C 
ATOM     27  CG1 VAL A   2     109.907  12.303  23.193  0.00  0.00    +0.002 C 
ENDBRANCH  16  25
ENDBRANCH  12  16
ENDBRANCH  11  13
ENDBRANCH   7  11
ENDBRANCH   6   9
ENDBRANCH   2   6
ENDBRANCH   1   4
BRANCH   1  28
ATOM     28  C   LEU A   5     107.432  17.358  18.697  0.00  0.00    +0.241 C 
ATOM     29  O   LEU A   5     106.214  17.402  18.910  0.00  0.00    -0.273 OA
ATOM     30  N   ALA A   6     107.958  17.423  17.477  0.00  0.00    -0.297 N 
ATOM     31  H   ALA A   6     108.976  17.245  17.360  0.00  0.00    +0.150 HD
BRANCH  30  32
ATOM     32  CA  ALA A   6     107.155  17.736  16.294  0.00  0.00    +0.149 C 
ATOM     33  CB  ALA A   6     106.217  16.580  15.939  0.00  0.00    +0.031 C 
BRANCH  32  34
ATOM     34  C   ALA A   6     106.377  19.032  16.505  0.00  0.00    +0.241 C 
ATOM     35  N   VAL A   7     107.062  20.037  17.047  0.00  0.00    -0.297 N 
ATOM     36  H   VAL A   7     108.064  19.893  17.285  0.00  0.00    +0.150 HD
ATOM     37  O   ALA A   6     105.188  19.115  16.189  0.00  0.00    -0.273 OA
BRANCH  35  38
ATOM     38  CA  VAL A   7     106.450  21.336  17.318  0.00  0.00    +0.149 C 
BRANCH  38  39
ATOM     39  C   VAL A   7     107.281  22.472  16.727  0.00  0.00    +0.241 C 
ATOM     40  O   VAL A   7     107.238  23.608  17.208  0.00  0.00    -0.273 OA
ATOM     41  N   GLY A   8     108.036  22.151  15.681  0.00  0.00    -0.295 N 
ATOM     42  H   GLY A   8     108.116  21.152  15.405  0.00  0.00    +0.150 HD
BRANCH  41  43
ATOM     43  CA  GLY A   8     108.753  23.155  14.912  0.00  0.00    +0.176 C 
BRANCH  43  44
ATOM     44  C   GLY A   8     110.265  23.053  14.982  0.00  0.00    +0.243 C 
ATOM     45  N   GLU A   9     110.766  22.053  15.699  0.00  0.00    -0.298 N 
ATOM     46  H   GLU A   9     110.123  21.345  16.106  0.00  0.00    +0.150 HD
ATOM     47  O   GLY A   8     110.976  23.862  14.378  0.00  0.00    -0.273 OA
BRANCH  45  48
ATOM     48  CA  GLU A   9     112.205  21.930  15.926  0.00  0.00    +0.137 C 
BRANCH  48  49
ATOM     49  C   GLU A   9     112.991  21.360  14.746  0.00  0.00    +0.227 C 
ATOM     50  O   GLU A   9     114.202  21.554  14.656  0.00  0.00    -0.286 OA
ENDBRANCH  48  49
BRANCH  48  51
ATOM     51  CB  GLU A   9     112.490  21.121  17.196  0.00  0.00    +0.039 C 
BRANCH  51  52
ATOM     52  CG  GLU A   9     112.311  19.606  17.061  0.00  0.00    +0.116 C 
BRANCH  52  53
ATOM     53  CD  GLU A   9     110.862  19.141  17.122  0.00  0.00    +0.365 C 
ATOM     54  OE2 GLU A   9     109.950  19.980  17.281  0.00  0.00    -0.246 OA
ATOM     55  OE1 GLU A   9     110.639  17.917  17.017  0.00  0.00    -0.246 OA
ENDBRANCH  52  53
ENDBRANCH  51  52
ENDBRANCH  48  51
ENDBRANCH  45  48
ENDBRANCH  43  44
ENDBRANCH  41  43
ENDBRANCH  38  39
BRANCH  38  56
ATOM     56  CB  VAL A   7     106.227  21.569  18.828  0.00  0.00    +0.027 C 
ATOM     57  CG2 VAL A   7     107.532  21.412  19.593  0.00  0.00    +0.002 C 
ATOM     58  CG1 VAL A   7     105.160  20.615  19.369  0.00  0.00    +0.002 C 
ENDBRANCH  38  56
ENDBRANCH  35  38
ENDBRANCH  32  34
ENDBRANCH  30  32
ENDBRANCH   1  28
BRANCH   1  59
ATOM     59  CB  LEU A   5     109.331  16.010  19.725  0.00  0.00    +0.029 C 
BRANCH  59  60
ATOM     60  CG  LEU A   5     110.435  15.941  20.790  0.00  0.00    +0.002 C 
ATOM     61  CD2 LEU A   5     111.388  17.126  20.699  0.00  0.00    +0.000 C 
ATOM     62  CD1 LEU A   5     111.208  14.639  20.680  0.00  0.00    +0.000 C 
ENDBRANCH  59  60
ENDBRANCH   1  59
TORSDOF 25
REMARK  Name = ../refined-set-2016/4kwo/4kwo_pocket.pdb
REMARK  212 active torsions:
REMARK  status: ('A' for Active; 'I' for Inactive)
REMARK    1  A    between atoms: _1  and  _3
REMARK    2  A    between atoms: _3  and  _4
REMARK    3  A    between atoms: _3  and  _6
REMARK    4  A    between atoms: _6  and  _7
REMARK    5  A    between atoms: _7  and  _8
REMARK    6  A    between atoms: _11  and  _12
REMARK    7  A    between atoms: _17  and  _19
REMARK    8  A    between atoms: _19  and  _20
REMARK    9  A    between atoms: _19  and  _22
REMARK   10  A    between atoms: _25  and  _27
REMARK   11  A    between atoms: _27  and  _28
REMARK   12  A    between atoms: _30  and  _32
REMARK   13  A    between atoms: _32  and  _33
REMARK   14  A    between atoms: _32  and  _35
REMARK   15  A    between atoms: _35  and  _36
REMARK   16  A    between atoms: _39  and  _41
REMARK   17  A    between atoms: _41  and  _42
REMARK   18  A    between atoms: _41  and  _44
REMARK   19  A    between atoms: _44  and  _45
REMARK   20  A    between atoms: _48  and  _50
REMARK   21  A    between atoms: _50  and  _51
REMARK   22  A    between atoms: _53  and  _55
REMARK   23  A    between atoms: _55  and  _56
REMARK   24  A    between atoms: _55  and  _58
REMARK   25  A    between atoms: _58  and  _59
REMARK   26  A    between atoms: _64  and  _66
REMARK   27  A    between atoms: _66  and  _67
REMARK   28  A    between atoms: _66  and  _69
REMARK   29  A    between atoms: _69  and  _70
REMARK   30  A    between atoms: _73  and  _75
REMARK   31  A    between atoms: _75  and  _76
REMARK   32  A    between atoms: _75  and  _78
REMARK   33  A    between atoms: _78  and  _79
REMARK   34  A    between atoms: _84  and  _85
REMARK   35  A    between atoms: _87  and  _89
REMARK   36  A    between atoms: _89  and  _90
REMARK   37  A    between atoms: _89  and  _92
REMARK   38  A    between atoms: _92  and  _93
REMARK   39  A    between atoms: _98  and  _100
REMARK   40  A    between atoms: _100  and  _101
REMARK   41  A    between atoms: _100  and  _103
REMARK   42  A    between atoms: _103  and  _104
REMARK   43  A    between atoms: _107  and  _109
REMARK   44  A    between atoms: _109  and  _110
REMARK   45  A    between atoms: _109  and  _112
REMARK   46  A    between atoms: _112  and  _113
REMARK   47  A    between atoms: _116  and  _118
REMARK   48  A    between atoms: _118  and  _119
REMARK   49  A    between atoms: _118  and  _121
REMARK   50  A    between atoms: _121  and  _122
REMARK   51  A    between atoms: _125  and  _127
REMARK   52  A    between atoms: _127  and  _128
REMARK   53  A    between atoms: _127  and  _130
REMARK   54  A    between atoms: _130  and  _131
REMARK   55  A    between atoms: _133  and  _135
REMARK   56  A    between atoms: _135  and  _136
REMARK   57  A    between atoms: _138  and  _140
REMARK   58  A    between atoms: _140  and  _141
REMARK   59  A    between atoms: _143  and  _145
REMARK   60  A    between atoms: _145  and  _146
REMARK   61  A    between atoms: _145  and  _148
REMARK   62  A    between atoms: _148  and  _149
REMARK   63  A    between atoms: _154  and  _155
REMARK   64  A    between atoms: _157  and  _159
REMARK   65  A    between atoms: _159  and  _160
REMARK   66  A    between atoms: _159  and  _162
REMARK   67  A    between atoms: _162  and  _163
REMARK   68  A    between atoms: _163  and  _164
REMARK   69  A    between atoms: _169  and  _171
REMARK   70  A    between atoms: _171  and  _172
REMARK   71  A    between atoms: _171  and  _174
REMARK   72  A    between atoms: _174  and  _175
REMARK   73  A    between atoms: _178  and  _180
REMARK   74  A    between atoms: _180  and  _181
REMARK   75  A    between atoms: _180  and  _183
REMARK   76  A    between atoms: _183  and  _184
REMARK   77  A    between atoms: _184  and  _185
REMARK   78  A    between atoms: _190  and  _192
REMARK   79  A    between atoms: _192  and  _193
REMARK   80  A    between atoms: _192  and  _195
REMARK   81  A    between atoms: _195  and  _196
REMARK   82  A    between atoms: _199  and  _201
REMARK   83  A    between atoms: _201  and  _202
REMARK   84  A    between atoms: _201  and  _204
REMARK   85  A    between atoms: _204  and  _205
REMARK   86  A    between atoms: _205  and  _206
REMARK   87  A    between atoms: _208  and  _210
REMARK   88  A    between atoms: _210  and  _211
REMARK   89  A    between atoms: _214  and  _216
REMARK   90  A    between atoms: _216  and  _217
REMARK   91  A    between atoms: _216  and  _219
REMARK   92  A    between atoms: _219  and  _220
REMARK   93  A    between atoms: _226  and  _228
REMARK   94  A    between atoms: _228  and  _229
REMARK   95  A    between atoms: _228  and  _231
REMARK   96  A    between atoms: _231  and  _232
REMARK   97  A    between atoms: _235  and  _237
REMARK   98  A    between atoms: _237  and  _238
REMARK   99  A    between atoms: _237  and  _240
REMARK  100  A    between atoms: _240  and  _241
REMARK  101  A    between atoms: _241  and  _242
REMARK  102  A    between atoms: _245  and  _247
REMARK  103  A    between atoms: _247  and  _248
REMARK  104  A    between atoms: _247  and  _250
REMARK  105  A    between atoms: _252  and  _254
REMARK  106  A    between atoms: _254  and  _255
REMARK  107  A    between atoms: _254  and  _257
REMARK  108  A    between atoms: _257  and  _258
REMARK  109  A    between atoms: _261  and  _263
REMARK  110  A    between atoms: _263  and  _264
REMARK  111  A    between atoms: _263  and  _266
REMARK  112  A    between atoms: _266  and  _267
REMARK  113  A    between atoms: _269  and  _271
REMARK  114  A    between atoms: _271  and  _272
REMARK  115  A    between atoms: _271  and  _274
REMARK  116  A    between atoms: _274  and  _275
REMARK  117  A    between atoms: _278  and  _280
REMARK  118  A    between atoms: _280  and  _281
REMARK  119  A    between atoms: _280  and  _283
REMARK  120  A    between atoms: _283  and  _284
REMARK  121  A    between atoms: _284  and  _285
REMARK  122  A    between atoms: _290  and  _292
REMARK  123  A    between atoms: _292  and  _293
REMARK  124  A    between atoms: _292  and  _295
REMARK  125  A    between atoms: _295  and  _296
REMARK  126  A    between atoms: _296  and  _297
REMARK  127  A    between atoms: _302  and  _304
REMARK  128  A    between atoms: _304  and  _305
REMARK  129  A    between atoms: _307  and  _309
REMARK  130  A    between atoms: _309  and  _310
REMARK  131  A    between atoms: _309  and  _312
REMARK  132  A    between atoms: _312  and  _313
REMARK  133  A    between atoms: _315  and  _317
REMARK  134  A    between atoms: _317  and  _318
REMARK  135  A    between atoms: _317  and  _320
REMARK  136  A    between atoms: _320  and  _321
REMARK  137  A    between atoms: _321  and  _322
REMARK  138  A    between atoms: _322  and  _323
REMARK  139  A    between atoms: _332  and  _334
REMARK  140  A    between atoms: _334  and  _335
REMARK  141  A    between atoms: _338  and  _340
REMARK  142  A    between atoms: _340  and  _341
REMARK  143  A    between atoms: _340  and  _343
REMARK  144  A    between atoms: _346  and  _348
REMARK  145  A    between atoms: _348  and  _349
REMARK  146  A    between atoms: _351  and  _353
REMARK  147  A    between atoms: _353  and  _354
REMARK  148  A    between atoms: _356  and  _358
REMARK  149  A    between atoms: _358  and  _359
REMARK  150  A    between atoms: _358  and  _361
REMARK  151  A    between atoms: _361  and  _362
REMARK  152  A    between atoms: _365  and  _367
REMARK  153  A    between atoms: _367  and  _368
REMARK  154  A    between atoms: _371  and  _373
REMARK  155  A    between atoms: _373  and  _374
REMARK  156  A    between atoms: _373  and  _376
REMARK  157  A    between atoms: _379  and  _381
REMARK  158  A    between atoms: _381  and  _382
REMARK  159  A    between atoms: _384  and  _386
REMARK  160  A    between atoms: _386  and  _387
REMARK  161  A    between atoms: _386  and  _389
REMARK  162  A    between atoms: _389  and  _390
REMARK  163  A    between atoms: _390  and  _391
REMARK  164  A    between atoms: _394  and  _396
REMARK  165  A    between atoms: _396  and  _397
REMARK  166  A    between atoms: _396  and  _399
REMARK  167  A    between atoms: _399  and  _400
REMARK  168  A    between atoms: _405  and  _406
REMARK  169  A    between atoms: _408  and  _410
REMARK  170  A    between atoms: _410  and  _411
REMARK  171  A    between atoms: _410  and  _413
REMARK  172  A    between atoms: _413  and  _414
REMARK  173  A    between atoms: _417  and  _419
REMARK  174  A    between atoms: _419  and  _420
REMARK  175  A    between atoms: _419  and  _422
REMARK  176  A    between atoms: _422  and  _423
REMARK  177  A    between atoms: _423  and  _424
REMARK  178  A    between atoms: _426  and  _428
REMARK  179  A    between atoms: _428  and  _429
REMARK  180  A    between atoms: _431  and  _433
REMARK  181  A    between atoms: _433  and  _434
REMARK  182  A    between atoms: _433  and  _436
REMARK  183  A    between atoms: _439  and  _441
REMARK  184  A    between atoms: _441  and  _442
REMARK  185  A    between atoms: _444  and  _446
REMARK  186  A    between atoms: _446  and  _447
REMARK  187  A    between atoms: _446  and  _449
REMARK  188  A    between atoms: _449  and  _450
REMARK  189  A    between atoms: _456  and  _458
REMARK  190  A    between atoms: _458  and  _459
REMARK  191  A    between atoms: _458  and  _461
REMARK  192  A    between atoms: _461  and  _462
REMARK  193  A    between atoms: _465  and  _467
REMARK  194  A    between atoms: _467  and  _468
REMARK  195  A    between atoms: _467  and  _470
REMARK  196  A    between atoms: _472  and  _474
REMARK  197  A    between atoms: _474  and  _475
REMARK  198  A    between atoms: _474  and  _477
REMARK  199  A    between atoms: _480  and  _482
REMARK  200  A    between atoms: _482  and  _483
REMARK  201  A    between atoms: _482  and  _485
REMARK  202  A    between atoms: _485  and  _486
REMARK  203  A    between atoms: _489  and  _491
REMARK  204  A    between atoms: _491  and  _492
REMARK  205  A    between atoms: _491  and  _494
REMARK  206  A    between atoms: _494  and  _495
REMARK  207  A    between atoms: _498  and  _500
REMARK  208  A    between atoms: _500  and  _501
REMARK  209  A    between atoms: _500  and  _503
REMARK  210  A    between atoms: _503  and  _504
REMARK  211  A    between atoms: _504  and  _505
REMARK  212  A    between atoms: _505  and  _506
REMARK                            x       y       z     vdW  Elec       q    Type
REMARK                         _______ _______ _______ _____ _____    ______ ____
ROOT
ATOM      1  C   LEU A   2     105.218  10.314  19.288  0.00  0.00    +0.241 C 
ATOM      2  N   MET A   3     104.737  11.293  20.048  0.00  0.00    -0.297 N 
ATOM      3  H   MET A   3     105.247  11.565  20.912  0.00  0.00    +0.150 HD
ATOM      4  O   LEU A   2     104.727  10.004  18.207  0.00  0.00    -0.273 OA
ENDROOT
BRANCH   2   5
ATOM      5  CA  MET A   3     103.504  11.994  19.691  0.00  0.00    +0.149 C 
BRANCH   5   6
ATOM      6  C   MET A   3     103.708  12.963  18.533  0.00  0.00    +0.241 C 
ATOM      7  O   MET A   3     104.630  13.788  18.545  0.00  0.00    -0.273 OA
ATOM      8  N   GLY A   4     102.842  12.861  17.526  0.00  0.00    -0.295 N 
ATOM      9  H   GLY A   4     102.167  12.069  17.514  0.00  0.00    +0.150 HD
BRANCH   8  10
ATOM     10  CA  GLY A   4     102.819  13.828  16.448  0.00  0.00    +0.176 C 
BRANCH  10  11
ATOM     11  C   GLY A   4     103.722  13.513  15.269  0.00  0.00    +0.243 C 
ATOM     12  N   VAL A   5     104.400  12.370  15.309  0.00  0.00    -0.297 N 
ATOM     13  H   VAL A   5     104.243  11.718  16.104  0.00  0.00    +0.150 HD
ATOM     14  O   GLY A   4     103.784  14.291  14.324  0.00  0.00    -0.273 OA
BRANCH  12  15
ATOM     15  CA  VAL A   5     105.361  12.001  14.269  0.00  0.00    +0.149 C 
BRANCH  15  16
ATOM     16  C   VAL A   5     104.873  10.787  13.473  0.00  0.00    +0.241 C 
ATOM     17  O   VAL A   5     104.441   9.803  14.060  0.00  0.00    -0.273 OA
ATOM     18  N   GLY A   6     104.926  10.836  12.143  0.00  0.00    -0.296 N 
ATOM     19  H   GLY A   6     104.583  10.008  11.616  0.00  0.00    +0.150 HD
BRANCH  18  20
ATOM     20  CA  GLY A   6     105.427  11.960  11.378  0.00  0.00    +0.163 C 
BRANCH  20  21
ATOM     21  C   GLY A   6     105.557  11.537   9.923  0.00  0.00    +0.229 C 
ATOM     22  O   GLY A   6     104.921  10.579   9.481  0.00  0.00    -0.286 OA
ENDBRANCH  20  21
ENDBRANCH  18  20
ENDBRANCH  15  16
BRANCH  15  23
ATOM     23  CB  VAL A   5     106.723  11.682  14.916  0.00  0.00    +0.027 C 
ATOM     24  CG2 VAL A   5     107.284  12.936  15.598  0.00  0.00    +0.002 C 
ATOM     25  CG1 VAL A   5     107.706  11.102  13.907  0.00  0.00    +0.002 C 
ENDBRANCH  15  23
ENDBRANCH  12  15
ENDBRANCH  10  11
ENDBRANCH   8  10
ENDBRANCH   5   6
BRANCH   5  26
ATOM     26  CB  MET A   3     102.929  12.726  20.904  0.00  0.00    +0.041 C 
BRANCH  26  27
ATOM     27  CG  MET A   3     102.777  11.809  22.098  0.00  0.00    +0.060 C 
BRANCH  27  28
ATOM     28  SD  MET A   3     101.834  12.524  23.452  0.00  0.00    -0.139 S 
ATOM     29  CE  MET A   3     100.177  12.256  22.828  0.00  0.00    +0.069 C 
ENDBRANCH  27  28
ENDBRANCH  26  27
ENDBRANCH   5  26
ENDBRANCH   2   5
BRANCH   1  30
ATOM     30  CA  LEU A   2     106.414   9.559  19.845  0.00  0.00    +0.149 C 
BRANCH  30  33
ATOM     31  C   TYR A   1     105.581   7.957  21.479  0.00  0.00    +0.239 C 
ATOM     32  O   TYR A   1     105.608   8.807  22.364  0.00  0.00    -0.274 OA
ATOM     33  N   LEU A   2     105.981   8.215  20.236  0.00  0.00    -0.297 N 
ATOM     34  H   LEU A   2     105.986   7.450  19.531  0.00  0.00    +0.150 HD
BRANCH  31  35
ATOM     35  CA  TYR A   1     105.077   6.547  21.779  0.00  0.00    +0.149 C 
BRANCH  35  36
ATOM     36  N   TYR A   1     105.948   5.921  22.772  0.00  0.00    -0.238 NA
ATOM     37  H   TYR A   1     105.987   6.321  23.731  0.00  0.00    +0.142 HD
ENDBRANCH  35  36
BRANCH  35  38
ATOM     38  CB  TYR A   1     103.641   6.534  22.337  0.00  0.00    +0.053 C 
BRANCH  38  39
ATOM     39  CG  TYR A   1     102.601   7.377  21.637  0.00  0.00    -0.020 A 
ATOM     40  CD2 TYR A   1     101.464   7.786  22.333  0.00  0.00    -0.001 A 
ATOM     41  CE2 TYR A   1     100.502   8.564  21.745  0.00  0.00    +0.036 A 
ATOM     42  CZ  TYR A   1     100.653   8.966  20.440  0.00  0.00    +0.134 A 
ATOM     43  CE1 TYR A   1     101.764   8.577  19.705  0.00  0.00    +0.036 A 
ATOM     44  CD1 TYR A   1     102.734   7.776  20.306  0.00  0.00    -0.001 A 
BRANCH  42  45
ATOM     45  OH  TYR A   1      99.679   9.757  19.883  0.00  0.00    -0.506 OA
ATOM     46  HH  TYR A   1      99.921   9.966  18.946  0.00  0.00    +0.292 HD
ENDBRANCH  42  45
ENDBRANCH  38  39
ENDBRANCH  35  38
ENDBRANCH  31  35
ENDBRANCH  30  33
BRANCH  30  47
ATOM     47  CB  LEU A   2     107.557   9.480  18.830  0.00  0.00    +0.029 C 
BRANCH  47  48
ATOM     48  CG  LEU A   2     108.091  10.828  18.336  0.00  0.00    +0.002 C 
ATOM     49  CD2 LEU A   2     108.521  11.751  19.469  0.00  0.00    +0.000 C 
ATOM     50  CD1 LEU A   2     109.245  10.583  17.367  0.00  0.00    +0.000 C 
ENDBRANCH  47  48
ENDBRANCH  30  47
ENDBRANCH   1  30
TORSDOF 21
REMARK  Name = ../refined-set-2016/4kwo/4kwo_pocket.pdb
REMARK  212 active torsions:
REMARK  status: ('A' for Active; 'I' for Inactive)
REMARK    1  A    between atoms: _1  and  _3
REMARK    2  A    between atoms: _3  and  _4
REMARK    3  A    between atoms: _3  and  _6
REMARK    4  A    between atoms: _6  and  _7
REMARK    5  A    between atoms: _7  and  _8
REMARK    6  A    between atoms: _11  and  _12
REMARK    7  A    between atoms: _17  and  _19
REMARK    8  A    between atoms: _19  and  _20
REMARK    9  A    between atoms: _19  and  _22
REMARK   10  A    between atoms: _25  and  _27
REMARK   11  A    between atoms: _27  and  _28
REMARK   12  A    between atoms: _30  and  _32
REMARK   13  A    between atoms: _32  and  _33
REMARK   14  A    between atoms: _32  and  _35
REMARK   15  A    between atoms: _35  and  _36
REMARK   16  A    between atoms: _39  and  _41
REMARK   17  A    between atoms: _41  and  _42
REMARK   18  A    between atoms: _41  and  _44
REMARK   19  A    between atoms: _44  and  _45
REMARK   20  A    between atoms: _48  and  _50
REMARK   21  A    between atoms: _50  and  _51
REMARK   22  A    between atoms: _53  and  _55
REMARK   23  A    between atoms: _55  and  _56
REMARK   24  A    between atoms: _55  and  _58
REMARK   25  A    between atoms: _58  and  _59
REMARK   26  A    between atoms: _64  and  _66
REMARK   27  A    between atoms: _66  and  _67
REMARK   28  A    between atoms: _66  and  _69
REMARK   29  A    between atoms: _69  and  _70
REMARK   30  A    between atoms: _73  and  _75
REMARK   31  A    between atoms: _75  and  _76
REMARK   32  A    between atoms: _75  and  _78
REMARK   33  A    between atoms: _78  and  _79
REMARK   34  A    between atoms: _84  and  _85
REMARK   35  A    between atoms: _87  and  _89
REMARK   36  A    between atoms: _89  and  _90
REMARK   37  A    between atoms: _89  and  _92
REMARK   38  A    between atoms: _92  and  _93
REMARK   39  A    between atoms: _98  and  _100
REMARK   40  A    between atoms: _100  and  _101
REMARK   41  A    between atoms: _100  and  _103
REMARK   42  A    between atoms: _103  and  _104
REMARK   43  A    between atoms: _107  and  _109
REMARK   44  A    between atoms: _109  and  _110
REMARK   45  A    between atoms: _109  and  _112
REMARK   46  A    between atoms: _112  and  _113
REMARK   47  A    between atoms: _116  and  _118
REMARK   48  A    between atoms: _118  and  _119
REMARK   49  A    between atoms: _118  and  _121
REMARK   50  A    between atoms: _121  and  _122
REMARK   51  A    between atoms: _125  and  _127
REMARK   52  A    between atoms: _127  and  _128
REMARK   53  A    between atoms: _127  and  _130
REMARK   54  A    between atoms: _130  and  _131
REMARK   55  A    between atoms: _133  and  _135
REMARK   56  A    between atoms: _135  and  _136
REMARK   57  A    between atoms: _138  and  _140
REMARK   58  A    between atoms: _140  and  _141
REMARK   59  A    between atoms: _143  and  _145
REMARK   60  A    between atoms: _145  and  _146
REMARK   61  A    between atoms: _145  and  _148
REMARK   62  A    between atoms: _148  and  _149
REMARK   63  A    between atoms: _154  and  _155
REMARK   64  A    between atoms: _157  and  _159
REMARK   65  A    between atoms: _159  and  _160
REMARK   66  A    between atoms: _159  and  _162
REMARK   67  A    between atoms: _162  and  _163
REMARK   68  A    between atoms: _163  and  _164
REMARK   69  A    between atoms: _169  and  _171
REMARK   70  A    between atoms: _171  and  _172
REMARK   71  A    between atoms: _171  and  _174
REMARK   72  A    between atoms: _174  and  _175
REMARK   73  A    between atoms: _178  and  _180
REMARK   74  A    between atoms: _180  and  _181
REMARK   75  A    between atoms: _180  and  _183
REMARK   76  A    between atoms: _183  and  _184
REMARK   77  A    between atoms: _184  and  _185
REMARK   78  A    between atoms: _190  and  _192
REMARK   79  A    between atoms: _192  and  _193
REMARK   80  A    between atoms: _192  and  _195
REMARK   81  A    between atoms: _195  and  _196
REMARK   82  A    between atoms: _199  and  _201
REMARK   83  A    between atoms: _201  and  _202
REMARK   84  A    between atoms: _201  and  _204
REMARK   85  A    between atoms: _204  and  _205
REMARK   86  A    between atoms: _205  and  _206
REMARK   87  A    between atoms: _208  and  _210
REMARK   88  A    between atoms: _210  and  _211
REMARK   89  A    between atoms: _214  and  _216
REMARK   90  A    between atoms: _216  and  _217
REMARK   91  A    between atoms: _216  and  _219
REMARK   92  A    between atoms: _219  and  _220
REMARK   93  A    between atoms: _226  and  _228
REMARK   94  A    between atoms: _228  and  _229
REMARK   95  A    between atoms: _228  and  _231
REMARK   96  A    between atoms: _231  and  _232
REMARK   97  A    between atoms: _235  and  _237
REMARK   98  A    between atoms: _237  and  _238
REMARK   99  A    between atoms: _237  and  _240
REMARK  100  A    between atoms: _240  and  _241
REMARK  101  A    between atoms: _241  and  _242
REMARK  102  A    between atoms: _245  and  _247
REMARK  103  A    between atoms: _247  and  _248
REMARK  104  A    between atoms: _247  and  _250
REMARK  105  A    between atoms: _252  and  _254
REMARK  106  A    between atoms: _254  and  _255
REMARK  107  A    between atoms: _254  and  _257
REMARK  108  A    between atoms: _257  and  _258
REMARK  109  A    between atoms: _261  and  _263
REMARK  110  A    between atoms: _263  and  _264
REMARK  111  A    between atoms: _263  and  _266
REMARK  112  A    between atoms: _266  and  _267
REMARK  113  A    between atoms: _269  and  _271
REMARK  114  A    between atoms: _271  and  _272
REMARK  115  A    between atoms: _271  and  _274
REMARK  116  A    between atoms: _274  and  _275
REMARK  117  A    between atoms: _278  and  _280
REMARK  118  A    between atoms: _280  and  _281
REMARK  119  A    between atoms: _280  and  _283
REMARK  120  A    between atoms: _283  and  _284
REMARK  121  A    between atoms: _284  and  _285
REMARK  122  A    between atoms: _290  and  _292
REMARK  123  A    between atoms: _292  and  _293
REMARK  124  A    between atoms: _292  and  _295
REMARK  125  A    between atoms: _295  and  _296
REMARK  126  A    between atoms: _296  and  _297
REMARK  127  A    between atoms: _302  and  _304
REMARK  128  A    between atoms: _304  and  _305
REMARK  129  A    between atoms: _307  and  _309
REMARK  130  A    between atoms: _309  and  _310
REMARK  131  A    between atoms: _309  and  _312
REMARK  132  A    between atoms: _312  and  _313
REMARK  133  A    between atoms: _315  and  _317
REMARK  134  A    between atoms: _317  and  _318
REMARK  135  A    between atoms: _317  and  _320
REMARK  136  A    between atoms: _320  and  _321
REMARK  137  A    between atoms: _321  and  _322
REMARK  138  A    between atoms: _322  and  _323
REMARK  139  A    between atoms: _332  and  _334
REMARK  140  A    between atoms: _334  and  _335
REMARK  141  A    between atoms: _338  and  _340
REMARK  142  A    between atoms: _340  and  _341
REMARK  143  A    between atoms: _340  and  _343
REMARK  144  A    between atoms: _346  and  _348
REMARK  145  A    between atoms: _348  and  _349
REMARK  146  A    between atoms: _351  and  _353
REMARK  147  A    between atoms: _353  and  _354
REMARK  148  A    between atoms: _356  and  _358
REMARK  149  A    between atoms: _358  and  _359
REMARK  150  A    between atoms: _358  and  _361
REMARK  151  A    between atoms: _361  and  _362
REMARK  152  A    between atoms: _365  and  _367
REMARK  153  A    between atoms: _367  and  _368
REMARK  154  A    between atoms: _371  and  _373
REMARK  155  A    between atoms: _373  and  _374
REMARK  156  A    between atoms: _373  and  _376
REMARK  157  A    between atoms: _379  and  _381
REMARK  158  A    between atoms: _381  and  _382
REMARK  159  A    between atoms: _384  and  _386
REMARK  160  A    between atoms: _386  and  _387
REMARK  161  A    between atoms: _386  and  _389
REMARK  162  A    between atoms: _389  and  _390
REMARK  163  A    between atoms: _390  and  _391
REMARK  164  A    between atoms: _394  and  _396
REMARK  165  A    between atoms: _396  and  _397
REMARK  166  A    between atoms: _396  and  _399
REMARK  167  A    between atoms: _399  and  _400
REMARK  168  A    between atoms: _405  and  _406
REMARK  169  A    between atoms: _408  and  _410
REMARK  170  A    between atoms: _410  and  _411
REMARK  171  A    between atoms: _410  and  _413
REMARK  172  A    between atoms: _413  and  _414
REMARK  173  A    between atoms: _417  and  _419
REMARK  174  A    between atoms: _419  and  _420
REMARK  175  A    between atoms: _419  and  _422
REMARK  176  A    between atoms: _422  and  _423
REMARK  177  A    between atoms: _423  and  _424
REMARK  178  A    between atoms: _426  and  _428
REMARK  179  A    between atoms: _428  and  _429
REMARK  180  A    between atoms: _431  and  _433
REMARK  181  A    between atoms: _433  and  _434
REMARK  182  A    between atoms: _433  and  _436
REMARK  183  A    between atoms: _439  and  _441
REMARK  184  A    between atoms: _441  and  _442
REMARK  185  A    between atoms: _444  and  _446
REMARK  186  A    between atoms: _446  and  _447
REMARK  187  A    between atoms: _446  and  _449
REMARK  188  A    between atoms: _449  and  _450
REMARK  189  A    between atoms: _456  and  _458
REMARK  190  A    between atoms: _458  and  _459
REMARK  191  A    between atoms: _458  and  _461
REMARK  192  A    between atoms: _461  and  _462
REMARK  193  A    between atoms: _465  and  _467
REMARK  194  A    between atoms: _467  and  _468
REMARK  195  A    between atoms: _467  and  _470
REMARK  196  A    between atoms: _472  and  _474
REMARK  197  A    between atoms: _474  and  _475
REMARK  198  A    between atoms: _474  and  _477
REMARK  199  A    between atoms: _480  and  _482
REMARK  200  A    between atoms: _482  and  _483
REMARK  201  A    between atoms: _482  and  _485
REMARK  202  A    between atoms: _485  and  _486
REMARK  203  A    between atoms: _489  and  _491
REMARK  204  A    between atoms: _491  and  _492
REMARK  205  A    between atoms: _491  and  _494
REMARK  206  A    between atoms: _494  and  _495
REMARK  207  A    between atoms: _498  and  _500
REMARK  208  A    between atoms: _500  and  _501
REMARK  209  A    between atoms: _500  and  _503
REMARK  210  A    between atoms: _503  and  _504
REMARK  211  A    between atoms: _504  and  _505
REMARK  212  A    between atoms: _505  and  _506
REMARK                            x       y       z     vdW  Elec       q    Type
REMARK                         _______ _______ _______ _____ _____    ______ ____
ROOT
ATOM      1  C   ASP A   2     100.879  10.350  14.244  0.00  0.00    +0.241 C 
ATOM      2  O   ASP A   2     101.841  11.023  14.639  0.00  0.00    -0.273 OA
ATOM      3  N   CYS A   3     100.160  10.688  13.174  0.00  0.00    -0.296 N 
ATOM      4  H   CYS A   3      99.457  10.023  12.794  0.00  0.00    +0.150 HD
ENDROOT
BRANCH   1   5
ATOM      5  CA  ASP A   2     100.462   9.093  15.015  0.00  0.00    +0.160 C 
BRANCH   5   7
ATOM      6  C   PHE A   1     101.879   7.184  15.652  0.00  0.00    +0.239 C 
ATOM      7  N   ASP A   2     101.672   8.496  15.566  0.00  0.00    -0.297 N 
ATOM      8  H   ASP A   2     102.418   9.133  15.912  0.00  0.00    +0.150 HD
ATOM      9  O   PHE A   1     101.019   6.336  15.427  0.00  0.00    -0.274 OA
BRANCH   6  10
ATOM     10  CA  PHE A   1     103.297   6.775  15.982  0.00  0.00    +0.149 C 
BRANCH  10  11
ATOM     11  N   PHE A   1     103.341   5.534  16.742  0.00  0.00    -0.238 NA
ATOM     12  H   PHE A   1     102.674   4.780  16.481  0.00  0.00    +0.142 HD
ENDBRANCH  10  11
BRANCH  10  13
ATOM     13  CB  PHE A   1     104.039   6.601  14.661  0.00  0.00    +0.053 C 
BRANCH  13  14
ATOM     14  CG  PHE A   1     105.485   6.291  14.823  0.00  0.00    -0.020 A 
ATOM     15  CD2 PHE A   1     106.409   7.313  14.979  0.00  0.00    -0.004 A 
ATOM     16  CE2 PHE A   1     107.752   7.026  15.152  0.00  0.00    -0.000 A 
ATOM     17  CZ  PHE A   1     108.182   5.711  15.157  0.00  0.00    -0.000 A 
ATOM     18  CE1 PHE A   1     107.262   4.684  15.014  0.00  0.00    -0.000 A 
ATOM     19  CD1 PHE A   1     105.923   4.975  14.842  0.00  0.00    -0.004 A 
ENDBRANCH  13  14
ENDBRANCH  10  13
ENDBRANCH   6  10
ENDBRANCH   5   7
BRANCH   5  20
ATOM     20  CB  ASP A   2      99.518   9.493  16.150  0.00  0.00    +0.143 C 
BRANCH  20  21
ATOM     21  CG  ASP A   2      99.817  10.873  16.709  0.00  0.00    +0.367 C 
ATOM     22  OD2 ASP A   2     100.568  11.016  17.706  0.00  0.00    -0.246 OA
ATOM     23  OD1 ASP A   2      99.275  11.840  16.142  0.00  0.00    -0.246 OA
ENDBRANCH  20  21
ENDBRANCH   5  20
ENDBRANCH   1   5
BRANCH   3  24
ATOM     24  CA  CYS A   3     100.351  11.982  12.532  0.00  0.00    +0.160 C 
BRANCH  24  25
ATOM     25  C   CYS A   3      99.269  12.279  11.513  0.00  0.00    +0.242 C 
ATOM     26  N   VAL A   4      99.028  13.572  11.347  0.00  0.00    -0.297 N 
ATOM     27  H   VAL A   4      99.633  14.265  11.831  0.00  0.00    +0.150 HD
ATOM     28  O   CYS A   3      98.624  11.398  10.946  0.00  0.00    -0.273 OA
BRANCH  26  29
ATOM     29  CA  VAL A   4      97.939  14.049  10.505  0.00  0.00    +0.149 C 
BRANCH  29  30
ATOM     30  C   VAL A   4      98.267  13.957   9.011  0.00  0.00    +0.241 C 
ATOM     31  N   LEU A   5      99.519  13.654   8.685  0.00  0.00    -0.298 N 
ATOM     32  H   LEU A   5     100.188  13.380   9.433  0.00  0.00    +0.150 HD
ATOM     33  O   VAL A   4      97.392  14.150   8.169  0.00  0.00    -0.273 OA
BRANCH  31  34
ATOM     34  CA  LEU A   5      99.977  13.698   7.291  0.00  0.00    +0.137 C 
BRANCH  34  35
ATOM     35  C   LEU A   5      99.206  12.828   6.288  0.00  0.00    +0.227 C 
ATOM     36  O   LEU A   5      98.784  13.341   5.259  0.00  0.00    -0.286 OA
ENDBRANCH  34  35
BRANCH  34  37
ATOM     37  CB  LEU A   5     101.488  13.439   7.180  0.00  0.00    +0.028 C 
BRANCH  37  38
ATOM     38  CG  LEU A   5     102.424  14.651   7.200  0.00  0.00    +0.002 C 
ATOM     39  CD2 LEU A   5     102.042  15.649   8.278  0.00  0.00    +0.000 C 
ATOM     40  CD1 LEU A   5     103.860  14.195   7.386  0.00  0.00    +0.000 C 
ENDBRANCH  37  38
ENDBRANCH  34  37
ENDBRANCH  31  34
ENDBRANCH  29  30
BRANCH  29  41
ATOM     41  CB  VAL A   4      97.571  15.513  10.862  0.00  0.00    +0.027 C 
ATOM     42  CG2 VAL A   4      96.166  15.864  10.384  0.00  0.00    +0.002 C 
ATOM     43  CG1 VAL A   4      98.608  16.477  10.302  0.00  0.00    +0.002 C 
ENDBRANCH  29  41
ENDBRANCH  26  29
ENDBRANCH  24  25
BRANCH  24  44
ATOM     44  CB  CYS A   3     101.739  12.129  11.905  0.00  0.00    +0.098 C 
ATOM     45  SG  CYS A   3     101.902  11.335  10.330  0.00  0.00    -0.080 S 
ENDBRANCH  24  44
ENDBRANCH   3  24
TORSDOF 18
REMARK  Name = ../refined-set-2016/4kwo/4kwo_pocket.pdb
REMARK  212 active torsions:
REMARK  status: ('A' for Active; 'I' for Inactive)
REMARK    1  A    between atoms: _1  and  _3
REMARK    2  A    between atoms: _3  and  _4
REMARK    3  A    between atoms: _3  and  _6
REMARK    4  A    between atoms: _6  and  _7
REMARK    5  A    between atoms: _7  and  _8
REMARK    6  A    between atoms: _11  and  _12
REMARK    7  A    between atoms: _17  and  _19
REMARK    8  A    between atoms: _19  and  _20
REMARK    9  A    between atoms: _19  and  _22
REMARK   10  A    between atoms: _25  and  _27
REMARK   11  A    between atoms: _27  and  _28
REMARK   12  A    between atoms: _30  and  _32
REMARK   13  A    between atoms: _32  and  _33
REMARK   14  A    between atoms: _32  and  _35
REMARK   15  A    between atoms: _35  and  _36
REMARK   16  A    between atoms: _39  and  _41
REMARK   17  A    between atoms: _41  and  _42
REMARK   18  A    between atoms: _41  and  _44
REMARK   19  A    between atoms: _44  and  _45
REMARK   20  A    between atoms: _48  and  _50
REMARK   21  A    between atoms: _50  and  _51
REMARK   22  A    between atoms: _53  and  _55
REMARK   23  A    between atoms: _55  and  _56
REMARK   24  A    between atoms: _55  and  _58
REMARK   25  A    between atoms: _58  and  _59
REMARK   26  A    between atoms: _64  and  _66
REMARK   27  A    between atoms: _66  and  _67
REMARK   28  A    between atoms: _66  and  _69
REMARK   29  A    between atoms: _69  and  _70
REMARK   30  A    between atoms: _73  and  _75
REMARK   31  A    between atoms: _75  and  _76
REMARK   32  A    between atoms: _75  and  _78
REMARK   33  A    between atoms: _78  and  _79
REMARK   34  A    between atoms: _84  and  _85
REMARK   35  A    between atoms: _87  and  _89
REMARK   36  A    between atoms: _89  and  _90
REMARK   37  A    between atoms: _89  and  _92
REMARK   38  A    between atoms: _92  and  _93
REMARK   39  A    between atoms: _98  and  _100
REMARK   40  A    between atoms: _100  and  _101
REMARK   41  A    between atoms: _100  and  _103
REMARK   42  A    between atoms: _103  and  _104
REMARK   43  A    between atoms: _107  and  _109
REMARK   44  A    between atoms: _109  and  _110
REMARK   45  A    between atoms: _109  and  _112
REMARK   46  A    between atoms: _112  and  _113
REMARK   47  A    between atoms: _116  and  _118
REMARK   48  A    between atoms: _118  and  _119
REMARK   49  A    between atoms: _118  and  _121
REMARK   50  A    between atoms: _121  and  _122
REMARK   51  A    between atoms: _125  and  _127
REMARK   52  A    between atoms: _127  and  _128
REMARK   53  A    between atoms: _127  and  _130
REMARK   54  A    between atoms: _130  and  _131
REMARK   55  A    between atoms: _133  and  _135
REMARK   56  A    between atoms: _135  and  _136
REMARK   57  A    between atoms: _138  and  _140
REMARK   58  A    between atoms: _140  and  _141
REMARK   59  A    between atoms: _143  and  _145
REMARK   60  A    between atoms: _145  and  _146
REMARK   61  A    between atoms: _145  and  _148
REMARK   62  A    between atoms: _148  and  _149
REMARK   63  A    between atoms: _154  and  _155
REMARK   64  A    between atoms: _157  and  _159
REMARK   65  A    between atoms: _159  and  _160
REMARK   66  A    between atoms: _159  and  _162
REMARK   67  A    between atoms: _162  and  _163
REMARK   68  A    between atoms: _163  and  _164
REMARK   69  A    between atoms: _169  and  _171
REMARK   70  A    between atoms: _171  and  _172
REMARK   71  A    between atoms: _171  and  _174
REMARK   72  A    between atoms: _174  and  _175
REMARK   73  A    between atoms: _178  and  _180
REMARK   74  A    between atoms: _180  and  _181
REMARK   75  A    between atoms: _180  and  _183
REMARK   76  A    between atoms: _183  and  _184
REMARK   77  A    between atoms: _184  and  _185
REMARK   78  A    between atoms: _190  and  _192
REMARK   79  A    between atoms: _192  and  _193
REMARK   80  A    between atoms: _192  and  _195
REMARK   81  A    between atoms: _195  and  _196
REMARK   82  A    between atoms: _199  and  _201
REMARK   83  A    between atoms: _201  and  _202
REMARK   84  A    between atoms: _201  and  _204
REMARK   85  A    between atoms: _204  and  _205
REMARK   86  A    between atoms: _205  and  _206
REMARK   87  A    between atoms: _208  and  _210
REMARK   88  A    between atoms: _210  and  _211
REMARK   89  A    between atoms: _214  and  _216
REMARK   90  A    between atoms: _216  and  _217
REMARK   91  A    between atoms: _216  and  _219
REMARK   92  A    between atoms: _219  and  _220
REMARK   93  A    between atoms: _226  and  _228
REMARK   94  A    between atoms: _228  and  _229
REMARK   95  A    between atoms: _228  and  _231
REMARK   96  A    between atoms: _231  and  _232
REMARK   97  A    between atoms: _235  and  _237
REMARK   98  A    between atoms: _237  and  _238
REMARK   99  A    between atoms: _237  and  _240
REMARK  100  A    between atoms: _240  and  _241
REMARK  101  A    between atoms: _241  and  _242
REMARK  102  A    between atoms: _245  and  _247
REMARK  103  A    between atoms: _247  and  _248
REMARK  104  A    between atoms: _247  and  _250
REMARK  105  A    between atoms: _252  and  _254
REMARK  106  A    between atoms: _254  and  _255
REMARK  107  A    between atoms: _254  and  _257
REMARK  108  A    between atoms: _257  and  _258
REMARK  109  A    between atoms: _261  and  _263
REMARK  110  A    between atoms: _263  and  _264
REMARK  111  A    between atoms: _263  and  _266
REMARK  112  A    between atoms: _266  and  _267
REMARK  113  A    between atoms: _269  and  _271
REMARK  114  A    between atoms: _271  and  _272
REMARK  115  A    between atoms: _271  and  _274
REMARK  116  A    between atoms: _274  and  _275
REMARK  117  A    between atoms: _278  and  _280
REMARK  118  A    between atoms: _280  and  _281
REMARK  119  A    between atoms: _280  and  _283
REMARK  120  A    between atoms: _283  and  _284
REMARK  121  A    between atoms: _284  and  _285
REMARK  122  A    between atoms: _290  and  _292
REMARK  123  A    between atoms: _292  and  _293
REMARK  124  A    between atoms: _292  and  _295
REMARK  125  A    between atoms: _295  and  _296
REMARK  126  A    between atoms: _296  and  _297
REMARK  127  A    between atoms: _302  and  _304
REMARK  128  A    between atoms: _304  and  _305
REMARK  129  A    between atoms: _307  and  _309
REMARK  130  A    between atoms: _309  and  _310
REMARK  131  A    between atoms: _309  and  _312
REMARK  132  A    between atoms: _312  and  _313
REMARK  133  A    between atoms: _315  and  _317
REMARK  134  A    between atoms: _317  and  _318
REMARK  135  A    between atoms: _317  and  _320
REMARK  136  A    between atoms: _320  and  _321
REMARK  137  A    between atoms: _321  and  _322
REMARK  138  A    between atoms: _322  and  _323
REMARK  139  A    between atoms: _332  and  _334
REMARK  140  A    between atoms: _334  and  _335
REMARK  141  A    between atoms: _338  and  _340
REMARK  142  A    between atoms: _340  and  _341
REMARK  143  A    between atoms: _340  and  _343
REMARK  144  A    between atoms: _346  and  _348
REMARK  145  A    between atoms: _348  and  _349
REMARK  146  A    between atoms: _351  and  _353
REMARK  147  A    between atoms: _353  and  _354
REMARK  148  A    between atoms: _356  and  _358
REMARK  149  A    between atoms: _358  and  _359
REMARK  150  A    between atoms: _358  and  _361
REMARK  151  A    between atoms: _361  and  _362
REMARK  152  A    between atoms: _365  and  _367
REMARK  153  A    between atoms: _367  and  _368
REMARK  154  A    between atoms: _371  and  _373
REMARK  155  A    between atoms: _373  and  _374
REMARK  156  A    between atoms: _373  and  _376
REMARK  157  A    between atoms: _379  and  _381
REMARK  158  A    between atoms: _381  and  _382
REMARK  159  A    between atoms: _384  and  _386
REMARK  160  A    between atoms: _386  and  _387
REMARK  161  A    between atoms: _386  and  _389
REMARK  162  A    between atoms: _389  and  _390
REMARK  163  A    between atoms: _390  and  _391
REMARK  164  A    between atoms: _394  and  _396
REMARK  165  A    between atoms: _396  and  _397
REMARK  166  A    between atoms: _396  and  _399
REMARK  167  A    between atoms: _399  and  _400
REMARK  168  A    between atoms: _405  and  _406
REMARK  169  A    between atoms: _408  and  _410
REMARK  170  A    between atoms: _410  and  _411
REMARK  171  A    between atoms: _410  and  _413
REMARK  172  A    between atoms: _413  and  _414
REMARK  173  A    between atoms: _417  and  _419
REMARK  174  A    between atoms: _419  and  _420
REMARK  175  A    between atoms: _419  and  _422
REMARK  176  A    between atoms: _422  and  _423
REMARK  177  A    between atoms: _423  and  _424
REMARK  178  A    between atoms: _426  and  _428
REMARK  179  A    between atoms: _428  and  _429
REMARK  180  A    between atoms: _431  and  _433
REMARK  181  A    between atoms: _433  and  _434
REMARK  182  A    between atoms: _433  and  _436
REMARK  183  A    between atoms: _439  and  _441
REMARK  184  A    between atoms: _441  and  _442
REMARK  185  A    between atoms: _444  and  _446
REMARK  186  A    between atoms: _446  and  _447
REMARK  187  A    between atoms: _446  and  _449
REMARK  188  A    between atoms: _449  and  _450
REMARK  189  A    between atoms: _456  and  _458
REMARK  190  A    between atoms: _458  and  _459
REMARK  191  A    between atoms: _458  and  _461
REMARK  192  A    between atoms: _461  and  _462
REMARK  193  A    between atoms: _465  and  _467
REMARK  194  A    between atoms: _467  and  _468
REMARK  195  A    between atoms: _467  and  _470
REMARK  196  A    between atoms: _472  and  _474
REMARK  197  A    between atoms: _474  and  _475
REMARK  198  A    between atoms: _474  and  _477
REMARK  199  A    between atoms: _480  and  _482
REMARK  200  A    between atoms: _482  and  _483
REMARK  201  A    between atoms: _482  and  _485
REMARK  202  A    between atoms: _485  and  _486
REMARK  203  A    between atoms: _489  and  _491
REMARK  204  A    between atoms: _491  and  _492
REMARK  205  A    between atoms: _491  and  _494
REMARK  206  A    between atoms: _494  and  _495
REMARK  207  A    between atoms: _498  and  _500
REMARK  208  A    between atoms: _500  and  _501
REMARK  209  A    between atoms: _500  and  _503
REMARK  210  A    between atoms: _503  and  _504
REMARK  211  A    between atoms: _504  and  _505
REMARK  212  A    between atoms: _505  and  _506
REMARK                            x       y       z     vdW  Elec       q    Type
REMARK                         _______ _______ _______ _____ _____    ______ ____
ROOT
ATOM      1  CA  ARG A   2      95.861  15.913   5.383  0.00  0.00    +0.137 C 
ENDROOT
BRANCH   1   3
ATOM      2  C   THR A   1      94.918  13.690   5.268  0.00  0.00    +0.241 C 
ATOM      3  N   ARG A   2      95.743  14.543   5.867  0.00  0.00    -0.298 N 
ATOM      4  H   ARG A   2      96.306  14.232   6.684  0.00  0.00    +0.150 HD
ATOM      5  O   THR A   1      94.205  14.010   4.322  0.00  0.00    -0.274 OA
BRANCH   2   6
ATOM      6  CA  THR A   1      94.875  12.267   5.801  0.00  0.00    +0.172 C 
BRANCH   6   7
ATOM      7  N   THR A   1      96.195  11.719   6.104  0.00  0.00    -0.236 NA
ATOM      8  H   THR A   1      96.526  11.684   7.089  0.00  0.00    +0.142 HD
ENDBRANCH   6   7
BRANCH   6   9
ATOM      9  CB  THR A   1      93.933  12.202   7.006  0.00  0.00    +0.135 C 
ATOM     10  CG2 THR A   1      93.722  10.762   7.395  0.00  0.00    +0.034 C 
BRANCH   9  11
ATOM     11  OG1 THR A   1      94.508  12.916   8.109  0.00  0.00    -0.383 OA
ATOM     12  HG1 THR A   1      95.377  12.506   8.349  0.00  0.00    +0.210 HD
ENDBRANCH   9  11
ENDBRANCH   6   9
ENDBRANCH   2   6
ENDBRANCH   1   3
BRANCH   1  13
ATOM     13  C   ARG A   2      96.392  15.910   3.956  0.00  0.00    +0.227 C 
ATOM     14  O   ARG A   2      95.851  16.592   3.088  0.00  0.00    -0.286 OA
ENDBRANCH   1  13
BRANCH   1  15
ATOM     15  CB  ARG A   2      96.753  16.760   6.294  0.00  0.00    +0.031 C 
BRANCH  15  16
ATOM     16  CG  ARG A   2      96.878  18.210   5.846  0.00  0.00    +0.045 C 
BRANCH  16  17
ATOM     17  CD  ARG A   2      97.527  19.070   6.920  0.00  0.00    +0.174 C 
BRANCH  17  18
ATOM     18  NE  ARG A   2      98.866  18.607   7.269  0.00  0.00    -0.265 N 
ATOM     19  CZ  ARG A   2      99.907  19.411   7.472  0.00  0.00    +0.342 C 
ATOM     20  NH2 ARG A   2     101.089  18.903   7.789  0.00  0.00    -0.292 N 
ATOM     21 HH21 ARG A   2     101.901  19.534   7.947  0.00  0.00    +0.255 HD
ATOM     22 HH22 ARG A   2     101.205  17.873   7.880  0.00  0.00    +0.255 HD
ATOM     23  NH1 ARG A   2      99.767  20.724   7.351  0.00  0.00    -0.292 N 
ATOM     24 HH11 ARG A   2     100.582  21.351   7.510  0.00  0.00    +0.255 HD
ATOM     25 HH12 ARG A   2      98.843  21.127   7.097  0.00  0.00    +0.255 HD
ATOM     26  HE  ARG A   2      99.017  17.582   7.365  0.00  0.00    +0.259 HD
ENDBRANCH  17  18
ENDBRANCH  16  17
ENDBRANCH  15  16
ENDBRANCH   1  15
TORSDOF 10
REMARK  Name = ../refined-set-2016/4kwo/4kwo_pocket.pdb
REMARK  212 active torsions:
REMARK  status: ('A' for Active; 'I' for Inactive)
REMARK    1  A    between atoms: _1  and  _3
REMARK    2  A    between atoms: _3  and  _4
REMARK    3  A    between atoms: _3  and  _6
REMARK    4  A    between atoms: _6  and  _7
REMARK    5  A    between atoms: _7  and  _8
REMARK    6  A    between atoms: _11  and  _12
REMARK    7  A    between atoms: _17  and  _19
REMARK    8  A    between atoms: _19  and  _20
REMARK    9  A    between atoms: _19  and  _22
REMARK   10  A    between atoms: _25  and  _27
REMARK   11  A    between atoms: _27  and  _28
REMARK   12  A    between atoms: _30  and  _32
REMARK   13  A    between atoms: _32  and  _33
REMARK   14  A    between atoms: _32  and  _35
REMARK   15  A    between atoms: _35  and  _36
REMARK   16  A    between atoms: _39  and  _41
REMARK   17  A    between atoms: _41  and  _42
REMARK   18  A    between atoms: _41  and  _44
REMARK   19  A    between atoms: _44  and  _45
REMARK   20  A    between atoms: _48  and  _50
REMARK   21  A    between atoms: _50  and  _51
REMARK   22  A    between atoms: _53  and  _55
REMARK   23  A    between atoms: _55  and  _56
REMARK   24  A    between atoms: _55  and  _58
REMARK   25  A    between atoms: _58  and  _59
REMARK   26  A    between atoms: _64  and  _66
REMARK   27  A    between atoms: _66  and  _67
REMARK   28  A    between atoms: _66  and  _69
REMARK   29  A    between atoms: _69  and  _70
REMARK   30  A    between atoms: _73  and  _75
REMARK   31  A    between atoms: _75  and  _76
REMARK   32  A    between atoms: _75  and  _78
REMARK   33  A    between atoms: _78  and  _79
REMARK   34  A    between atoms: _84  and  _85
REMARK   35  A    between atoms: _87  and  _89
REMARK   36  A    between atoms: _89  and  _90
REMARK   37  A    between atoms: _89  and  _92
REMARK   38  A    between atoms: _92  and  _93
REMARK   39  A    between atoms: _98  and  _100
REMARK   40  A    between atoms: _100  and  _101
REMARK   41  A    between atoms: _100  and  _103
REMARK   42  A    between atoms: _103  and  _104
REMARK   43  A    between atoms: _107  and  _109
REMARK   44  A    between atoms: _109  and  _110
REMARK   45  A    between atoms: _109  and  _112
REMARK   46  A    between atoms: _112  and  _113
REMARK   47  A    between atoms: _116  and  _118
REMARK   48  A    between atoms: _118  and  _119
REMARK   49  A    between atoms: _118  and  _121
REMARK   50  A    between atoms: _121  and  _122
REMARK   51  A    between atoms: _125  and  _127
REMARK   52  A    between atoms: _127  and  _128
REMARK   53  A    between atoms: _127  and  _130
REMARK   54  A    between atoms: _130  and  _131
REMARK   55  A    between atoms: _133  and  _135
REMARK   56  A    between atoms: _135  and  _136
REMARK   57  A    between atoms: _138  and  _140
REMARK   58  A    between atoms: _140  and  _141
REMARK   59  A    between atoms: _143  and  _145
REMARK   60  A    between atoms: _145  and  _146
REMARK   61  A    between atoms: _145  and  _148
REMARK   62  A    between atoms: _148  and  _149
REMARK   63  A    between atoms: _154  and  _155
REMARK   64  A    between atoms: _157  and  _159
REMARK   65  A    between atoms: _159  and  _160
REMARK   66  A    between atoms: _159  and  _162
REMARK   67  A    between atoms: _162  and  _163
REMARK   68  A    between atoms: _163  and  _164
REMARK   69  A    between atoms: _169  and  _171
REMARK   70  A    between atoms: _171  and  _172
REMARK   71  A    between atoms: _171  and  _174
REMARK   72  A    between atoms: _174  and  _175
REMARK   73  A    between atoms: _178  and  _180
REMARK   74  A    between atoms: _180  and  _181
REMARK   75  A    between atoms: _180  and  _183
REMARK   76  A    between atoms: _183  and  _184
REMARK   77  A    between atoms: _184  and  _185
REMARK   78  A    between atoms: _190  and  _192
REMARK   79  A    between atoms: _192  and  _193
REMARK   80  A    between atoms: _192  and  _195
REMARK   81  A    between atoms: _195  and  _196
REMARK   82  A    between atoms: _199  and  _201
REMARK   83  A    between atoms: _201  and  _202
REMARK   84  A    between atoms: _201  and  _204
REMARK   85  A    between atoms: _204  and  _205
REMARK   86  A    between atoms: _205  and  _206
REMARK   87  A    between atoms: _208  and  _210
REMARK   88  A    between atoms: _210  and  _211
REMARK   89  A    between atoms: _214  and  _216
REMARK   90  A    between atoms: _216  and  _217
REMARK   91  A    between atoms: _216  and  _219
REMARK   92  A    between atoms: _219  and  _220
REMARK   93  A    between atoms: _226  and  _228
REMARK   94  A    between atoms: _228  and  _229
REMARK   95  A    between atoms: _228  and  _231
REMARK   96  A    between atoms: _231  and  _232
REMARK   97  A    between atoms: _235  and  _237
REMARK   98  A    between atoms: _237  and  _238
REMARK   99  A    between atoms: _237  and  _240
REMARK  100  A    between atoms: _240  and  _241
REMARK  101  A    between atoms: _241  and  _242
REMARK  102  A    between atoms: _245  and  _247
REMARK  103  A    between atoms: _247  and  _248
REMARK  104  A    between atoms: _247  and  _250
REMARK  105  A    between atoms: _252  and  _254
REMARK  106  A    between atoms: _254  and  _255
REMARK  107  A    between atoms: _254  and  _257
REMARK  108  A    between atoms: _257  and  _258
REMARK  109  A    between atoms: _261  and  _263
REMARK  110  A    between atoms: _263  and  _264
REMARK  111  A    between atoms: _263  and  _266
REMARK  112  A    between atoms: _266  and  _267
REMARK  113  A    between atoms: _269  and  _271
REMARK  114  A    between atoms: _271  and  _272
REMARK  115  A    between atoms: _271  and  _274
REMARK  116  A    between atoms: _274  and  _275
REMARK  117  A    between atoms: _278  and  _280
REMARK  118  A    between atoms: _280  and  _281
REMARK  119  A    between atoms: _280  and  _283
REMARK  120  A    between atoms: _283  and  _284
REMARK  121  A    between atoms: _284  and  _285
REMARK  122  A    between atoms: _290  and  _292
REMARK  123  A    between atoms: _292  and  _293
REMARK  124  A    between atoms: _292  and  _295
REMARK  125  A    between atoms: _295  and  _296
REMARK  126  A    between atoms: _296  and  _297
REMARK  127  A    between atoms: _302  and  _304
REMARK  128  A    between atoms: _304  and  _305
REMARK  129  A    between atoms: _307  and  _309
REMARK  130  A    between atoms: _309  and  _310
REMARK  131  A    between atoms: _309  and  _312
REMARK  132  A    between atoms: _312  and  _313
REMARK  133  A    between atoms: _315  and  _317
REMARK  134  A    between atoms: _317  and  _318
REMARK  135  A    between atoms: _317  and  _320
REMARK  136  A    between atoms: _320  and  _321
REMARK  137  A    between atoms: _321  and  _322
REMARK  138  A    between atoms: _322  and  _323
REMARK  139  A    between atoms: _332  and  _334
REMARK  140  A    between atoms: _334  and  _335
REMARK  141  A    between atoms: _338  and  _340
REMARK  142  A    between atoms: _340  and  _341
REMARK  143  A    between atoms: _340  and  _343
REMARK  144  A    between atoms: _346  and  _348
REMARK  145  A    between atoms: _348  and  _349
REMARK  146  A    between atoms: _351  and  _353
REMARK  147  A    between atoms: _353  and  _354
REMARK  148  A    between atoms: _356  and  _358
REMARK  149  A    between atoms: _358  and  _359
REMARK  150  A    between atoms: _358  and  _361
REMARK  151  A    between atoms: _361  and  _362
REMARK  152  A    between atoms: _365  and  _367
REMARK  153  A    between atoms: _367  and  _368
REMARK  154  A    between atoms: _371  and  _373
REMARK  155  A    between atoms: _373  and  _374
REMARK  156  A    between atoms: _373  and  _376
REMARK  157  A    between atoms: _379  and  _381
REMARK  158  A    between atoms: _381  and  _382
REMARK  159  A    between atoms: _384  and  _386
REMARK  160  A    between atoms: _386  and  _387
REMARK  161  A    between atoms: _386  and  _389
REMARK  162  A    between atoms: _389  and  _390
REMARK  163  A    between atoms: _390  and  _391
REMARK  164  A    between atoms: _394  and  _396
REMARK  165  A    between atoms: _396  and  _397
REMARK  166  A    between atoms: _396  and  _399
REMARK  167  A    between atoms: _399  and  _400
REMARK  168  A    between atoms: _405  and  _406
REMARK  169  A    between atoms: _408  and  _410
REMARK  170  A    between atoms: _410  and  _411
REMARK  171  A    between atoms: _410  and  _413
REMARK  172  A    between atoms: _413  and  _414
REMARK  173  A    between atoms: _417  and  _419
REMARK  174  A    between atoms: _419  and  _420
REMARK  175  A    between atoms: _419  and  _422
REMARK  176  A    between atoms: _422  and  _423
REMARK  177  A    between atoms: _423  and  _424
REMARK  178  A    between atoms: _426  and  _428
REMARK  179  A    between atoms: _428  and  _429
REMARK  180  A    between atoms: _431  and  _433
REMARK  181  A    between atoms: _433  and  _434
REMARK  182  A    between atoms: _433  and  _436
REMARK  183  A    between atoms: _439  and  _441
REMARK  184  A    between atoms: _441  and  _442
REMARK  185  A    between atoms: _444  and  _446
REMARK  186  A    between atoms: _446  and  _447
REMARK  187  A    between atoms: _446  and  _449
REMARK  188  A    between atoms: _449  and  _450
REMARK  189  A    between atoms: _456  and  _458
REMARK  190  A    between atoms: _458  and  _459
REMARK  191  A    between atoms: _458  and  _461
REMARK  192  A    between atoms: _461  and  _462
REMARK  193  A    between atoms: _465  and  _467
REMARK  194  A    between atoms: _467  and  _468
REMARK  195  A    between atoms: _467  and  _470
REMARK  196  A    between atoms: _472  and  _474
REMARK  197  A    between atoms: _474  and  _475
REMARK  198  A    between atoms: _474  and  _477
REMARK  199  A    between atoms: _480  and  _482
REMARK  200  A    between atoms: _482  and  _483
REMARK  201  A    between atoms: _482  and  _485
REMARK  202  A    between atoms: _485  and  _486
REMARK  203  A    between atoms: _489  and  _491
REMARK  204  A    between atoms: _491  and  _492
REMARK  205  A    between atoms: _491  and  _494
REMARK  206  A    between atoms: _494  and  _495
REMARK  207  A    between atoms: _498  and  _500
REMARK  208  A    between atoms: _500  and  _501
REMARK  209  A    between atoms: _500  and  _503
REMARK  210  A    between atoms: _503  and  _504
REMARK  211  A    between atoms: _504  and  _505
REMARK  212  A    between atoms: _505  and  _506
REMARK                            x       y       z     vdW  Elec       q    Type
REMARK                         _______ _______ _______ _____ _____    ______ ____
ROOT
ATOM      1  O   HOH     1     106.147  14.746  20.816  0.00  0.00    +0.000 OA
ENDROOT
TORSDOF 0
REMARK  Name = ../refined-set-2016/4kwo/4kwo_pocket.pdb
REMARK  212 active torsions:
REMARK  status: ('A' for Active; 'I' for Inactive)
REMARK    1  A    between atoms: _1  and  _3
REMARK    2  A    between atoms: _3  and  _4
REMARK    3  A    between atoms: _3  and  _6
REMARK    4  A    between atoms: _6  and  _7
REMARK    5  A    between atoms: _7  and  _8
REMARK    6  A    between atoms: _11  and  _12
REMARK    7  A    between atoms: _17  and  _19
REMARK    8  A    between atoms: _19  and  _20
REMARK    9  A    between atoms: _19  and  _22
REMARK   10  A    between atoms: _25  and  _27
REMARK   11  A    between atoms: _27  and  _28
REMARK   12  A    between atoms: _30  and  _32
REMARK   13  A    between atoms: _32  and  _33
REMARK   14  A    between atoms: _32  and  _35
REMARK   15  A    between atoms: _35  and  _36
REMARK   16  A    between atoms: _39  and  _41
REMARK   17  A    between atoms: _41  and  _42
REMARK   18  A    between atoms: _41  and  _44
REMARK   19  A    between atoms: _44  and  _45
REMARK   20  A    between atoms: _48  and  _50
REMARK   21  A    between atoms: _50  and  _51
REMARK   22  A    between atoms: _53  and  _55
REMARK   23  A    between atoms: _55  and  _56
REMARK   24  A    between atoms: _55  and  _58
REMARK   25  A    between atoms: _58  and  _59
REMARK   26  A    between atoms: _64  and  _66
REMARK   27  A    between atoms: _66  and  _67
REMARK   28  A    between atoms: _66  and  _69
REMARK   29  A    between atoms: _69  and  _70
REMARK   30  A    between atoms: _73  and  _75
REMARK   31  A    between atoms: _75  and  _76
REMARK   32  A    between atoms: _75  and  _78
REMARK   33  A    between atoms: _78  and  _79
REMARK   34  A    between atoms: _84  and  _85
REMARK   35  A    between atoms: _87  and  _89
REMARK   36  A    between atoms: _89  and  _90
REMARK   37  A    between atoms: _89  and  _92
REMARK   38  A    between atoms: _92  and  _93
REMARK   39  A    between atoms: _98  and  _100
REMARK   40  A    between atoms: _100  and  _101
REMARK   41  A    between atoms: _100  and  _103
REMARK   42  A    between atoms: _103  and  _104
REMARK   43  A    between atoms: _107  and  _109
REMARK   44  A    between atoms: _109  and  _110
REMARK   45  A    between atoms: _109  and  _112
REMARK   46  A    between atoms: _112  and  _113
REMARK   47  A    between atoms: _116  and  _118
REMARK   48  A    between atoms: _118  and  _119
REMARK   49  A    between atoms: _118  and  _121
REMARK   50  A    between atoms: _121  and  _122
REMARK   51  A    between atoms: _125  and  _127
REMARK   52  A    between atoms: _127  and  _128
REMARK   53  A    between atoms: _127  and  _130
REMARK   54  A    between atoms: _130  and  _131
REMARK   55  A    between atoms: _133  and  _135
REMARK   56  A    between atoms: _135  and  _136
REMARK   57  A    between atoms: _138  and  _140
REMARK   58  A    between atoms: _140  and  _141
REMARK   59  A    between atoms: _143  and  _145
REMARK   60  A    between atoms: _145  and  _146
REMARK   61  A    between atoms: _145  and  _148
REMARK   62  A    between atoms: _148  and  _149
REMARK   63  A    between atoms: _154  and  _155
REMARK   64  A    between atoms: _157  and  _159
REMARK   65  A    between atoms: _159  and  _160
REMARK   66  A    between atoms: _159  and  _162
REMARK   67  A    between atoms: _162  and  _163
REMARK   68  A    between atoms: _163  and  _164
REMARK   69  A    between atoms: _169  and  _171
REMARK   70  A    between atoms: _171  and  _172
REMARK   71  A    between atoms: _171  and  _174
REMARK   72  A    between atoms: _174  and  _175
REMARK   73  A    between atoms: _178  and  _180
REMARK   74  A    between atoms: _180  and  _181
REMARK   75  A    between atoms: _180  and  _183
REMARK   76  A    between atoms: _183  and  _184
REMARK   77  A    between atoms: _184  and  _185
REMARK   78  A    between atoms: _190  and  _192
REMARK   79  A    between atoms: _192  and  _193
REMARK   80  A    between atoms: _192  and  _195
REMARK   81  A    between atoms: _195  and  _196
REMARK   82  A    between atoms: _199  and  _201
REMARK   83  A    between atoms: _201  and  _202
REMARK   84  A    between atoms: _201  and  _204
REMARK   85  A    between atoms: _204  and  _205
REMARK   86  A    between atoms: _205  and  _206
REMARK   87  A    between atoms: _208  and  _210
REMARK   88  A    between atoms: _210  and  _211
REMARK   89  A    between atoms: _214  and  _216
REMARK   90  A    between atoms: _216  and  _217
REMARK   91  A    between atoms: _216  and  _219
REMARK   92  A    between atoms: _219  and  _220
REMARK   93  A    between atoms: _226  and  _228
REMARK   94  A    between atoms: _228  and  _229
REMARK   95  A    between atoms: _228  and  _231
REMARK   96  A    between atoms: _231  and  _232
REMARK   97  A    between atoms: _235  and  _237
REMARK   98  A    between atoms: _237  and  _238
REMARK   99  A    between atoms: _237  and  _240
REMARK  100  A    between atoms: _240  and  _241
REMARK  101  A    between atoms: _241  and  _242
REMARK  102  A    between atoms: _245  and  _247
REMARK  103  A    between atoms: _247  and  _248
REMARK  104  A    between atoms: _247  and  _250
REMARK  105  A    between atoms: _252  and  _254
REMARK  106  A    between atoms: _254  and  _255
REMARK  107  A    between atoms: _254  and  _257
REMARK  108  A    between atoms: _257  and  _258
REMARK  109  A    between atoms: _261  and  _263
REMARK  110  A    between atoms: _263  and  _264
REMARK  111  A    between atoms: _263  and  _266
REMARK  112  A    between atoms: _266  and  _267
REMARK  113  A    between atoms: _269  and  _271
REMARK  114  A    between atoms: _271  and  _272
REMARK  115  A    between atoms: _271  and  _274
REMARK  116  A    between atoms: _274  and  _275
REMARK  117  A    between atoms: _278  and  _280
REMARK  118  A    between atoms: _280  and  _281
REMARK  119  A    between atoms: _280  and  _283
REMARK  120  A    between atoms: _283  and  _284
REMARK  121  A    between atoms: _284  and  _285
REMARK  122  A    between atoms: _290  and  _292
REMARK  123  A    between atoms: _292  and  _293
REMARK  124  A    between atoms: _292  and  _295
REMARK  125  A    between atoms: _295  and  _296
REMARK  126  A    between atoms: _296  and  _297
REMARK  127  A    between atoms: _302  and  _304
REMARK  128  A    between atoms: _304  and  _305
REMARK  129  A    between atoms: _307  and  _309
REMARK  130  A    between atoms: _309  and  _310
REMARK  131  A    between atoms: _309  and  _312
REMARK  132  A    between atoms: _312  and  _313
REMARK  133  A    between atoms: _315  and  _317
REMARK  134  A    between atoms: _317  and  _318
REMARK  135  A    between atoms: _317  and  _320
REMARK  136  A    between atoms: _320  and  _321
REMARK  137  A    between atoms: _321  and  _322
REMARK  138  A    between atoms: _322  and  _323
REMARK  139  A    between atoms: _332  and  _334
REMARK  140  A    between atoms: _334  and  _335
REMARK  141  A    between atoms: _338  and  _340
REMARK  142  A    between atoms: _340  and  _341
REMARK  143  A    between atoms: _340  and  _343
REMARK  144  A    between atoms: _346  and  _348
REMARK  145  A    between atoms: _348  and  _349
REMARK  146  A    between atoms: _351  and  _353
REMARK  147  A    between atoms: _353  and  _354
REMARK  148  A    between atoms: _356  and  _358
REMARK  149  A    between atoms: _358  and  _359
REMARK  150  A    between atoms: _358  and  _361
REMARK  151  A    between atoms: _361  and  _362
REMARK  152  A    between atoms: _365  and  _367
REMARK  153  A    between atoms: _367  and  _368
REMARK  154  A    between atoms: _371  and  _373
REMARK  155  A    between atoms: _373  and  _374
REMARK  156  A    between atoms: _373  and  _376
REMARK  157  A    between atoms: _379  and  _381
REMARK  158  A    between atoms: _381  and  _382
REMARK  159  A    between atoms: _384  and  _386
REMARK  160  A    between atoms: _386  and  _387
REMARK  161  A    between atoms: _386  and  _389
REMARK  162  A    between atoms: _389  and  _390
REMARK  163  A    between atoms: _390  and  _391
REMARK  164  A    between atoms: _394  and  _396
REMARK  165  A    between atoms: _396  and  _397
REMARK  166  A    between atoms: _396  and  _399
REMARK  167  A    between atoms: _399  and  _400
REMARK  168  A    between atoms: _405  and  _406
REMARK  169  A    between atoms: _408  and  _410
REMARK  170  A    between atoms: _410  and  _411
REMARK  171  A    between atoms: _410  and  _413
REMARK  172  A    between atoms: _413  and  _414
REMARK  173  A    between atoms: _417  and  _419
REMARK  174  A    between atoms: _419  and  _420
REMARK  175  A    between atoms: _419  and  _422
REMARK  176  A    between atoms: _422  and  _423
REMARK  177  A    between atoms: _423  and  _424
REMARK  178  A    between atoms: _426  and  _428
REMARK  179  A    between atoms: _428  and  _429
REMARK  180  A    between atoms: _431  and  _433
REMARK  181  A    between atoms: _433  and  _434
REMARK  182  A    between atoms: _433  and  _436
REMARK  183  A    between atoms: _439  and  _441
REMARK  184  A    between atoms: _441  and  _442
REMARK  185  A    between atoms: _444  and  _446
REMARK  186  A    between atoms: _446  and  _447
REMARK  187  A    between atoms: _446  and  _449
REMARK  188  A    between atoms: _449  and  _450
REMARK  189  A    between atoms: _456  and  _458
REMARK  190  A    between atoms: _458  and  _459
REMARK  191  A    between atoms: _458  and  _461
REMARK  192  A    between atoms: _461  and  _462
REMARK  193  A    between atoms: _465  and  _467
REMARK  194  A    between atoms: _467  and  _468
REMARK  195  A    between atoms: _467  and  _470
REMARK  196  A    between atoms: _472  and  _474
REMARK  197  A    between atoms: _474  and  _475
REMARK  198  A    between atoms: _474  and  _477
REMARK  199  A    between atoms: _480  and  _482
REMARK  200  A    between atoms: _482  and  _483
REMARK  201  A    between atoms: _482  and  _485
REMARK  202  A    between atoms: _485  and  _486
REMARK  203  A    between atoms: _489  and  _491
REMARK  204  A    between atoms: _491  and  _492
REMARK  205  A    between atoms: _491  and  _494
REMARK  206  A    between atoms: _494  and  _495
REMARK  207  A    between atoms: _498  and  _500
REMARK  208  A    between atoms: _500  and  _501
REMARK  209  A    between atoms: _500  and  _503
REMARK  210  A    between atoms: _503  and  _504
REMARK  211  A    between atoms: _504  and  _505
REMARK  212  A    between atoms: _505  and  _506
REMARK                            x       y       z     vdW  Elec       q    Type
REMARK                         _______ _______ _______ _____ _____    ______ ____
ROOT
ATOM      1  O   HOH     1     102.818  13.090  31.589  0.00  0.00    +0.000 OA
ENDROOT
TORSDOF 0
REMARK  Name = ../refined-set-2016/4kwo/4kwo_pocket.pdb
REMARK  212 active torsions:
REMARK  status: ('A' for Active; 'I' for Inactive)
REMARK    1  A    between atoms: _1  and  _3
REMARK    2  A    between atoms: _3  and  _4
REMARK    3  A    between atoms: _3  and  _6
REMARK    4  A    between atoms: _6  and  _7
REMARK    5  A    between atoms: _7  and  _8
REMARK    6  A    between atoms: _11  and  _12
REMARK    7  A    between atoms: _17  and  _19
REMARK    8  A    between atoms: _19  and  _20
REMARK    9  A    between atoms: _19  and  _22
REMARK   10  A    between atoms: _25  and  _27
REMARK   11  A    between atoms: _27  and  _28
REMARK   12  A    between atoms: _30  and  _32
REMARK   13  A    between atoms: _32  and  _33
REMARK   14  A    between atoms: _32  and  _35
REMARK   15  A    between atoms: _35  and  _36
REMARK   16  A    between atoms: _39  and  _41
REMARK   17  A    between atoms: _41  and  _42
REMARK   18  A    between atoms: _41  and  _44
REMARK   19  A    between atoms: _44  and  _45
REMARK   20  A    between atoms: _48  and  _50
REMARK   21  A    between atoms: _50  and  _51
REMARK   22  A    between atoms: _53  and  _55
REMARK   23  A    between atoms: _55  and  _56
REMARK   24  A    between atoms: _55  and  _58
REMARK   25  A    between atoms: _58  and  _59
REMARK   26  A    between atoms: _64  and  _66
REMARK   27  A    between atoms: _66  and  _67
REMARK   28  A    between atoms: _66  and  _69
REMARK   29  A    between atoms: _69  and  _70
REMARK   30  A    between atoms: _73  and  _75
REMARK   31  A    between atoms: _75  and  _76
REMARK   32  A    between atoms: _75  and  _78
REMARK   33  A    between atoms: _78  and  _79
REMARK   34  A    between atoms: _84  and  _85
REMARK   35  A    between atoms: _87  and  _89
REMARK   36  A    between atoms: _89  and  _90
REMARK   37  A    between atoms: _89  and  _92
REMARK   38  A    between atoms: _92  and  _93
REMARK   39  A    between atoms: _98  and  _100
REMARK   40  A    between atoms: _100  and  _101
REMARK   41  A    between atoms: _100  and  _103
REMARK   42  A    between atoms: _103  and  _104
REMARK   43  A    between atoms: _107  and  _109
REMARK   44  A    between atoms: _109  and  _110
REMARK   45  A    between atoms: _109  and  _112
REMARK   46  A    between atoms: _112  and  _113
REMARK   47  A    between atoms: _116  and  _118
REMARK   48  A    between atoms: _118  and  _119
REMARK   49  A    between atoms: _118  and  _121
REMARK   50  A    between atoms: _121  and  _122
REMARK   51  A    between atoms: _125  and  _127
REMARK   52  A    between atoms: _127  and  _128
REMARK   53  A    between atoms: _127  and  _130
REMARK   54  A    between atoms: _130  and  _131
REMARK   55  A    between atoms: _133  and  _135
REMARK   56  A    between atoms: _135  and  _136
REMARK   57  A    between atoms: _138  and  _140
REMARK   58  A    between atoms: _140  and  _141
REMARK   59  A    between atoms: _143  and  _145
REMARK   60  A    between atoms: _145  and  _146
REMARK   61  A    between atoms: _145  and  _148
REMARK   62  A    between atoms: _148  and  _149
REMARK   63  A    between atoms: _154  and  _155
REMARK   64  A    between atoms: _157  and  _159
REMARK   65  A    between atoms: _159  and  _160
REMARK   66  A    between atoms: _159  and  _162
REMARK   67  A    between atoms: _162  and  _163
REMARK   68  A    between atoms: _163  and  _164
REMARK   69  A    between atoms: _169  and  _171
REMARK   70  A    between atoms: _171  and  _172
REMARK   71  A    between atoms: _171  and  _174
REMARK   72  A    between atoms: _174  and  _175
REMARK   73  A    between atoms: _178  and  _180
REMARK   74  A    between atoms: _180  and  _181
REMARK   75  A    between atoms: _180  and  _183
REMARK   76  A    between atoms: _183  and  _184
REMARK   77  A    between atoms: _184  and  _185
REMARK   78  A    between atoms: _190  and  _192
REMARK   79  A    between atoms: _192  and  _193
REMARK   80  A    between atoms: _192  and  _195
REMARK   81  A    between atoms: _195  and  _196
REMARK   82  A    between atoms: _199  and  _201
REMARK   83  A    between atoms: _201  and  _202
REMARK   84  A    between atoms: _201  and  _204
REMARK   85  A    between atoms: _204  and  _205
REMARK   86  A    between atoms: _205  and  _206
REMARK   87  A    between atoms: _208  and  _210
REMARK   88  A    between atoms: _210  and  _211
REMARK   89  A    between atoms: _214  and  _216
REMARK   90  A    between atoms: _216  and  _217
REMARK   91  A    between atoms: _216  and  _219
REMARK   92  A    between atoms: _219  and  _220
REMARK   93  A    between atoms: _226  and  _228
REMARK   94  A    between atoms: _228  and  _229
REMARK   95  A    between atoms: _228  and  _231
REMARK   96  A    between atoms: _231  and  _232
REMARK   97  A    between atoms: _235  and  _237
REMARK   98  A    between atoms: _237  and  _238
REMARK   99  A    between atoms: _237  and  _240
REMARK  100  A    between atoms: _240  and  _241
REMARK  101  A    between atoms: _241  and  _242
REMARK  102  A    between atoms: _245  and  _247
REMARK  103  A    between atoms: _247  and  _248
REMARK  104  A    between atoms: _247  and  _250
REMARK  105  A    between atoms: _252  and  _254
REMARK  106  A    between atoms: _254  and  _255
REMARK  107  A    between atoms: _254  and  _257
REMARK  108  A    between atoms: _257  and  _258
REMARK  109  A    between atoms: _261  and  _263
REMARK  110  A    between atoms: _263  and  _264
REMARK  111  A    between atoms: _263  and  _266
REMARK  112  A    between atoms: _266  and  _267
REMARK  113  A    between atoms: _269  and  _271
REMARK  114  A    between atoms: _271  and  _272
REMARK  115  A    between atoms: _271  and  _274
REMARK  116  A    between atoms: _274  and  _275
REMARK  117  A    between atoms: _278  and  _280
REMARK  118  A    between atoms: _280  and  _281
REMARK  119  A    between atoms: _280  and  _283
REMARK  120  A    between atoms: _283  and  _284
REMARK  121  A    between atoms: _284  and  _285
REMARK  122  A    between atoms: _290  and  _292
REMARK  123  A    between atoms: _292  and  _293
REMARK  124  A    between atoms: _292  and  _295
REMARK  125  A    between atoms: _295  and  _296
REMARK  126  A    between atoms: _296  and  _297
REMARK  127  A    between atoms: _302  and  _304
REMARK  128  A    between atoms: _304  and  _305
REMARK  129  A    between atoms: _307  and  _309
REMARK  130  A    between atoms: _309  and  _310
REMARK  131  A    between atoms: _309  and  _312
REMARK  132  A    between atoms: _312  and  _313
REMARK  133  A    between atoms: _315  and  _317
REMARK  134  A    between atoms: _317  and  _318
REMARK  135  A    between atoms: _317  and  _320
REMARK  136  A    between atoms: _320  and  _321
REMARK  137  A    between atoms: _321  and  _322
REMARK  138  A    between atoms: _322  and  _323
REMARK  139  A    between atoms: _332  and  _334
REMARK  140  A    between atoms: _334  and  _335
REMARK  141  A    between atoms: _338  and  _340
REMARK  142  A    between atoms: _340  and  _341
REMARK  143  A    between atoms: _340  and  _343
REMARK  144  A    between atoms: _346  and  _348
REMARK  145  A    between atoms: _348  and  _349
REMARK  146  A    between atoms: _351  and  _353
REMARK  147  A    between atoms: _353  and  _354
REMARK  148  A    between atoms: _356  and  _358
REMARK  149  A    between atoms: _358  and  _359
REMARK  150  A    between atoms: _358  and  _361
REMARK  151  A    between atoms: _361  and  _362
REMARK  152  A    between atoms: _365  and  _367
REMARK  153  A    between atoms: _367  and  _368
REMARK  154  A    between atoms: _371  and  _373
REMARK  155  A    between atoms: _373  and  _374
REMARK  156  A    between atoms: _373  and  _376
REMARK  157  A    between atoms: _379  and  _381
REMARK  158  A    between atoms: _381  and  _382
REMARK  159  A    between atoms: _384  and  _386
REMARK  160  A    between atoms: _386  and  _387
REMARK  161  A    between atoms: _386  and  _389
REMARK  162  A    between atoms: _389  and  _390
REMARK  163  A    between atoms: _390  and  _391
REMARK  164  A    between atoms: _394  and  _396
REMARK  165  A    between atoms: _396  and  _397
REMARK  166  A    between atoms: _396  and  _399
REMARK  167  A    between atoms: _399  and  _400
REMARK  168  A    between atoms: _405  and  _406
REMARK  169  A    between atoms: _408  and  _410
REMARK  170  A    between atoms: _410  and  _411
REMARK  171  A    between atoms: _410  and  _413
REMARK  172  A    between atoms: _413  and  _414
REMARK  173  A    between atoms: _417  and  _419
REMARK  174  A    between atoms: _419  and  _420
REMARK  175  A    between atoms: _419  and  _422
REMARK  176  A    between atoms: _422  and  _423
REMARK  177  A    between atoms: _423  and  _424
REMARK  178  A    between atoms: _426  and  _428
REMARK  179  A    between atoms: _428  and  _429
REMARK  180  A    between atoms: _431  and  _433
REMARK  181  A    between atoms: _433  and  _434
REMARK  182  A    between atoms: _433  and  _436
REMARK  183  A    between atoms: _439  and  _441
REMARK  184  A    between atoms: _441  and  _442
REMARK  185  A    between atoms: _444  and  _446
REMARK  186  A    between atoms: _446  and  _447
REMARK  187  A    between atoms: _446  and  _449
REMARK  188  A    between atoms: _449  and  _450
REMARK  189  A    between atoms: _456  and  _458
REMARK  190  A    between atoms: _458  and  _459
REMARK  191  A    between atoms: _458  and  _461
REMARK  192  A    between atoms: _461  and  _462
REMARK  193  A    between atoms: _465  and  _467
REMARK  194  A    between atoms: _467  and  _468
REMARK  195  A    between atoms: _467  and  _470
REMARK  196  A    between atoms: _472  and  _474
REMARK  197  A    between atoms: _474  and  _475
REMARK  198  A    between atoms: _474  and  _477
REMARK  199  A    between atoms: _480  and  _482
REMARK  200  A    between atoms: _482  and  _483
REMARK  201  A    between atoms: _482  and  _485
REMARK  202  A    between atoms: _485  and  _486
REMARK  203  A    between atoms: _489  and  _491
REMARK  204  A    between atoms: _491  and  _492
REMARK  205  A    between atoms: _491  and  _494
REMARK  206  A    between atoms: _494  and  _495
REMARK  207  A    between atoms: _498  and  _500
REMARK  208  A    between atoms: _500  and  _501
REMARK  209  A    between atoms: _500  and  _503
REMARK  210  A    between atoms: _503  and  _504
REMARK  211  A    between atoms: _504  and  _505
REMARK  212  A    between atoms: _505  and  _506
REMARK                            x       y       z     vdW  Elec       q    Type
REMARK                         _______ _______ _______ _____ _____    ______ ____
ROOT
ATOM      1  O   HOH     1     101.141  15.057  32.516  0.00  0.00    +0.000 OA
ENDROOT
TORSDOF 0
REMARK  Name = ../refined-set-2016/4kwo/4kwo_pocket.pdb
REMARK  212 active torsions:
REMARK  status: ('A' for Active; 'I' for Inactive)
REMARK    1  A    between atoms: _1  and  _3
REMARK    2  A    between atoms: _3  and  _4
REMARK    3  A    between atoms: _3  and  _6
REMARK    4  A    between atoms: _6  and  _7
REMARK    5  A    between atoms: _7  and  _8
REMARK    6  A    between atoms: _11  and  _12
REMARK    7  A    between atoms: _17  and  _19
REMARK    8  A    between atoms: _19  and  _20
REMARK    9  A    between atoms: _19  and  _22
REMARK   10  A    between atoms: _25  and  _27
REMARK   11  A    between atoms: _27  and  _28
REMARK   12  A    between atoms: _30  and  _32
REMARK   13  A    between atoms: _32  and  _33
REMARK   14  A    between atoms: _32  and  _35
REMARK   15  A    between atoms: _35  and  _36
REMARK   16  A    between atoms: _39  and  _41
REMARK   17  A    between atoms: _41  and  _42
REMARK   18  A    between atoms: _41  and  _44
REMARK   19  A    between atoms: _44  and  _45
REMARK   20  A    between atoms: _48  and  _50
REMARK   21  A    between atoms: _50  and  _51
REMARK   22  A    between atoms: _53  and  _55
REMARK   23  A    between atoms: _55  and  _56
REMARK   24  A    between atoms: _55  and  _58
REMARK   25  A    between atoms: _58  and  _59
REMARK   26  A    between atoms: _64  and  _66
REMARK   27  A    between atoms: _66  and  _67
REMARK   28  A    between atoms: _66  and  _69
REMARK   29  A    between atoms: _69  and  _70
REMARK   30  A    between atoms: _73  and  _75
REMARK   31  A    between atoms: _75  and  _76
REMARK   32  A    between atoms: _75  and  _78
REMARK   33  A    between atoms: _78  and  _79
REMARK   34  A    between atoms: _84  and  _85
REMARK   35  A    between atoms: _87  and  _89
REMARK   36  A    between atoms: _89  and  _90
REMARK   37  A    between atoms: _89  and  _92
REMARK   38  A    between atoms: _92  and  _93
REMARK   39  A    between atoms: _98  and  _100
REMARK   40  A    between atoms: _100  and  _101
REMARK   41  A    between atoms: _100  and  _103
REMARK   42  A    between atoms: _103  and  _104
REMARK   43  A    between atoms: _107  and  _109
REMARK   44  A    between atoms: _109  and  _110
REMARK   45  A    between atoms: _109  and  _112
REMARK   46  A    between atoms: _112  and  _113
REMARK   47  A    between atoms: _116  and  _118
REMARK   48  A    between atoms: _118  and  _119
REMARK   49  A    between atoms: _118  and  _121
REMARK   50  A    between atoms: _121  and  _122
REMARK   51  A    between atoms: _125  and  _127
REMARK   52  A    between atoms: _127  and  _128
REMARK   53  A    between atoms: _127  and  _130
REMARK   54  A    between atoms: _130  and  _131
REMARK   55  A    between atoms: _133  and  _135
REMARK   56  A    between atoms: _135  and  _136
REMARK   57  A    between atoms: _138  and  _140
REMARK   58  A    between atoms: _140  and  _141
REMARK   59  A    between atoms: _143  and  _145
REMARK   60  A    between atoms: _145  and  _146
REMARK   61  A    between atoms: _145  and  _148
REMARK   62  A    between atoms: _148  and  _149
REMARK   63  A    between atoms: _154  and  _155
REMARK   64  A    between atoms: _157  and  _159
REMARK   65  A    between atoms: _159  and  _160
REMARK   66  A    between atoms: _159  and  _162
REMARK   67  A    between atoms: _162  and  _163
REMARK   68  A    between atoms: _163  and  _164
REMARK   69  A    between atoms: _169  and  _171
REMARK   70  A    between atoms: _171  and  _172
REMARK   71  A    between atoms: _171  and  _174
REMARK   72  A    between atoms: _174  and  _175
REMARK   73  A    between atoms: _178  and  _180
REMARK   74  A    between atoms: _180  and  _181
REMARK   75  A    between atoms: _180  and  _183
REMARK   76  A    between atoms: _183  and  _184
REMARK   77  A    between atoms: _184  and  _185
REMARK   78  A    between atoms: _190  and  _192
REMARK   79  A    between atoms: _192  and  _193
REMARK   80  A    between atoms: _192  and  _195
REMARK   81  A    between atoms: _195  and  _196
REMARK   82  A    between atoms: _199  and  _201
REMARK   83  A    between atoms: _201  and  _202
REMARK   84  A    between atoms: _201  and  _204
REMARK   85  A    between atoms: _204  and  _205
REMARK   86  A    between atoms: _205  and  _206
REMARK   87  A    between atoms: _208  and  _210
REMARK   88  A    between atoms: _210  and  _211
REMARK   89  A    between atoms: _214  and  _216
REMARK   90  A    between atoms: _216  and  _217
REMARK   91  A    between atoms: _216  and  _219
REMARK   92  A    between atoms: _219  and  _220
REMARK   93  A    between atoms: _226  and  _228
REMARK   94  A    between atoms: _228  and  _229
REMARK   95  A    between atoms: _228  and  _231
REMARK   96  A    between atoms: _231  and  _232
REMARK   97  A    between atoms: _235  and  _237
REMARK   98  A    between atoms: _237  and  _238
REMARK   99  A    between atoms: _237  and  _240
REMARK  100  A    between atoms: _240  and  _241
REMARK  101  A    between atoms: _241  and  _242
REMARK  102  A    between atoms: _245  and  _247
REMARK  103  A    between atoms: _247  and  _248
REMARK  104  A    between atoms: _247  and  _250
REMARK  105  A    between atoms: _252  and  _254
REMARK  106  A    between atoms: _254  and  _255
REMARK  107  A    between atoms: _254  and  _257
REMARK  108  A    between atoms: _257  and  _258
REMARK  109  A    between atoms: _261  and  _263
REMARK  110  A    between atoms: _263  and  _264
REMARK  111  A    between atoms: _263  and  _266
REMARK  112  A    between atoms: _266  and  _267
REMARK  113  A    between atoms: _269  and  _271
REMARK  114  A    between atoms: _271  and  _272
REMARK  115  A    between atoms: _271  and  _274
REMARK  116  A    between atoms: _274  and  _275
REMARK  117  A    between atoms: _278  and  _280
REMARK  118  A    between atoms: _280  and  _281
REMARK  119  A    between atoms: _280  and  _283
REMARK  120  A    between atoms: _283  and  _284
REMARK  121  A    between atoms: _284  and  _285
REMARK  122  A    between atoms: _290  and  _292
REMARK  123  A    between atoms: _292  and  _293
REMARK  124  A    between atoms: _292  and  _295
REMARK  125  A    between atoms: _295  and  _296
REMARK  126  A    between atoms: _296  and  _297
REMARK  127  A    between atoms: _302  and  _304
REMARK  128  A    between atoms: _304  and  _305
REMARK  129  A    between atoms: _307  and  _309
REMARK  130  A    between atoms: _309  and  _310
REMARK  131  A    between atoms: _309  and  _312
REMARK  132  A    between atoms: _312  and  _313
REMARK  133  A    between atoms: _315  and  _317
REMARK  134  A    between atoms: _317  and  _318
REMARK  135  A    between atoms: _317  and  _320
REMARK  136  A    between atoms: _320  and  _321
REMARK  137  A    between atoms: _321  and  _322
REMARK  138  A    between atoms: _322  and  _323
REMARK  139  A    between atoms: _332  and  _334
REMARK  140  A    between atoms: _334  and  _335
REMARK  141  A    between atoms: _338  and  _340
REMARK  142  A    between atoms: _340  and  _341
REMARK  143  A    between atoms: _340  and  _343
REMARK  144  A    between atoms: _346  and  _348
REMARK  145  A    between atoms: _348  and  _349
REMARK  146  A    between atoms: _351  and  _353
REMARK  147  A    between atoms: _353  and  _354
REMARK  148  A    between atoms: _356  and  _358
REMARK  149  A    between atoms: _358  and  _359
REMARK  150  A    between atoms: _358  and  _361
REMARK  151  A    between atoms: _361  and  _362
REMARK  152  A    between atoms: _365  and  _367
REMARK  153  A    between atoms: _367  and  _368
REMARK  154  A    between atoms: _371  and  _373
REMARK  155  A    between atoms: _373  and  _374
REMARK  156  A    between atoms: _373  and  _376
REMARK  157  A    between atoms: _379  and  _381
REMARK  158  A    between atoms: _381  and  _382
REMARK  159  A    between atoms: _384  and  _386
REMARK  160  A    between atoms: _386  and  _387
REMARK  161  A    between atoms: _386  and  _389
REMARK  162  A    between atoms: _389  and  _390
REMARK  163  A    between atoms: _390  and  _391
REMARK  164  A    between atoms: _394  and  _396
REMARK  165  A    between atoms: _396  and  _397
REMARK  166  A    between atoms: _396  and  _399
REMARK  167  A    between atoms: _399  and  _400
REMARK  168  A    between atoms: _405  and  _406
REMARK  169  A    between atoms: _408  and  _410
REMARK  170  A    between atoms: _410  and  _411
REMARK  171  A    between atoms: _410  and  _413
REMARK  172  A    between atoms: _413  and  _414
REMARK  173  A    between atoms: _417  and  _419
REMARK  174  A    between atoms: _419  and  _420
REMARK  175  A    between atoms: _419  and  _422
REMARK  176  A    between atoms: _422  and  _423
REMARK  177  A    between atoms: _423  and  _424
REMARK  178  A    between atoms: _426  and  _428
REMARK  179  A    between atoms: _428  and  _429
REMARK  180  A    between atoms: _431  and  _433
REMARK  181  A    between atoms: _433  and  _434
REMARK  182  A    between atoms: _433  and  _436
REMARK  183  A    between atoms: _439  and  _441
REMARK  184  A    between atoms: _441  and  _442
REMARK  185  A    between atoms: _444  and  _446
REMARK  186  A    between atoms: _446  and  _447
REMARK  187  A    between atoms: _446  and  _449
REMARK  188  A    between atoms: _449  and  _450
REMARK  189  A    between atoms: _456  and  _458
REMARK  190  A    between atoms: _458  and  _459
REMARK  191  A    between atoms: _458  and  _461
REMARK  192  A    between atoms: _461  and  _462
REMARK  193  A    between atoms: _465  and  _467
REMARK  194  A    between atoms: _467  and  _468
REMARK  195  A    between atoms: _467  and  _470
REMARK  196  A    between atoms: _472  and  _474
REMARK  197  A    between atoms: _474  and  _475
REMARK  198  A    between atoms: _474  and  _477
REMARK  199  A    between atoms: _480  and  _482
REMARK  200  A    between atoms: _482  and  _483
REMARK  201  A    between atoms: _482  and  _485
REMARK  202  A    between atoms: _485  and  _486
REMARK  203  A    between atoms: _489  and  _491
REMARK  204  A    between atoms: _491  and  _492
REMARK  205  A    between atoms: _491  and  _494
REMARK  206  A    between atoms: _494  and  _495
REMARK  207  A    between atoms: _498  and  _500
REMARK  208  A    between atoms: _500  and  _501
REMARK  209  A    between atoms: _500  and  _503
REMARK  210  A    between atoms: _503  and  _504
REMARK  211  A    between atoms: _504  and  _505
REMARK  212  A    between atoms: _505  and  _506
REMARK                            x       y       z     vdW  Elec       q    Type
REMARK                         _______ _______ _______ _____ _____    ______ ____
ROOT
ATOM      1  O   HOH     1      93.181  12.553  20.401  0.00  0.00    +0.000 OA
ENDROOT
TORSDOF 0
REMARK  Name = ../refined-set-2016/4kwo/4kwo_pocket.pdb
REMARK  212 active torsions:
REMARK  status: ('A' for Active; 'I' for Inactive)
REMARK    1  A    between atoms: _1  and  _3
REMARK    2  A    between atoms: _3  and  _4
REMARK    3  A    between atoms: _3  and  _6
REMARK    4  A    between atoms: _6  and  _7
REMARK    5  A    between atoms: _7  and  _8
REMARK    6  A    between atoms: _11  and  _12
REMARK    7  A    between atoms: _17  and  _19
REMARK    8  A    between atoms: _19  and  _20
REMARK    9  A    between atoms: _19  and  _22
REMARK   10  A    between atoms: _25  and  _27
REMARK   11  A    between atoms: _27  and  _28
REMARK   12  A    between atoms: _30  and  _32
REMARK   13  A    between atoms: _32  and  _33
REMARK   14  A    between atoms: _32  and  _35
REMARK   15  A    between atoms: _35  and  _36
REMARK   16  A    between atoms: _39  and  _41
REMARK   17  A    between atoms: _41  and  _42
REMARK   18  A    between atoms: _41  and  _44
REMARK   19  A    between atoms: _44  and  _45
REMARK   20  A    between atoms: _48  and  _50
REMARK   21  A    between atoms: _50  and  _51
REMARK   22  A    between atoms: _53  and  _55
REMARK   23  A    between atoms: _55  and  _56
REMARK   24  A    between atoms: _55  and  _58
REMARK   25  A    between atoms: _58  and  _59
REMARK   26  A    between atoms: _64  and  _66
REMARK   27  A    between atoms: _66  and  _67
REMARK   28  A    between atoms: _66  and  _69
REMARK   29  A    between atoms: _69  and  _70
REMARK   30  A    between atoms: _73  and  _75
REMARK   31  A    between atoms: _75  and  _76
REMARK   32  A    between atoms: _75  and  _78
REMARK   33  A    between atoms: _78  and  _79
REMARK   34  A    between atoms: _84  and  _85
REMARK   35  A    between atoms: _87  and  _89
REMARK   36  A    between atoms: _89  and  _90
REMARK   37  A    between atoms: _89  and  _92
REMARK   38  A    between atoms: _92  and  _93
REMARK   39  A    between atoms: _98  and  _100
REMARK   40  A    between atoms: _100  and  _101
REMARK   41  A    between atoms: _100  and  _103
REMARK   42  A    between atoms: _103  and  _104
REMARK   43  A    between atoms: _107  and  _109
REMARK   44  A    between atoms: _109  and  _110
REMARK   45  A    between atoms: _109  and  _112
REMARK   46  A    between atoms: _112  and  _113
REMARK   47  A    between atoms: _116  and  _118
REMARK   48  A    between atoms: _118  and  _119
REMARK   49  A    between atoms: _118  and  _121
REMARK   50  A    between atoms: _121  and  _122
REMARK   51  A    between atoms: _125  and  _127
REMARK   52  A    between atoms: _127  and  _128
REMARK   53  A    between atoms: _127  and  _130
REMARK   54  A    between atoms: _130  and  _131
REMARK   55  A    between atoms: _133  and  _135
REMARK   56  A    between atoms: _135  and  _136
REMARK   57  A    between atoms: _138  and  _140
REMARK   58  A    between atoms: _140  and  _141
REMARK   59  A    between atoms: _143  and  _145
REMARK   60  A    between atoms: _145  and  _146
REMARK   61  A    between atoms: _145  and  _148
REMARK   62  A    between atoms: _148  and  _149
REMARK   63  A    between atoms: _154  and  _155
REMARK   64  A    between atoms: _157  and  _159
REMARK   65  A    between atoms: _159  and  _160
REMARK   66  A    between atoms: _159  and  _162
REMARK   67  A    between atoms: _162  and  _163
REMARK   68  A    between atoms: _163  and  _164
REMARK   69  A    between atoms: _169  and  _171
REMARK   70  A    between atoms: _171  and  _172
REMARK   71  A    between atoms: _171  and  _174
REMARK   72  A    between atoms: _174  and  _175
REMARK   73  A    between atoms: _178  and  _180
REMARK   74  A    between atoms: _180  and  _181
REMARK   75  A    between atoms: _180  and  _183
REMARK   76  A    between atoms: _183  and  _184
REMARK   77  A    between atoms: _184  and  _185
REMARK   78  A    between atoms: _190  and  _192
REMARK   79  A    between atoms: _192  and  _193
REMARK   80  A    between atoms: _192  and  _195
REMARK   81  A    between atoms: _195  and  _196
REMARK   82  A    between atoms: _199  and  _201
REMARK   83  A    between atoms: _201  and  _202
REMARK   84  A    between atoms: _201  and  _204
REMARK   85  A    between atoms: _204  and  _205
REMARK   86  A    between atoms: _205  and  _206
REMARK   87  A    between atoms: _208  and  _210
REMARK   88  A    between atoms: _210  and  _211
REMARK   89  A    between atoms: _214  and  _216
REMARK   90  A    between atoms: _216  and  _217
REMARK   91  A    between atoms: _216  and  _219
REMARK   92  A    between atoms: _219  and  _220
REMARK   93  A    between atoms: _226  and  _228
REMARK   94  A    between atoms: _228  and  _229
REMARK   95  A    between atoms: _228  and  _231
REMARK   96  A    between atoms: _231  and  _232
REMARK   97  A    between atoms: _235  and  _237
REMARK   98  A    between atoms: _237  and  _238
REMARK   99  A    between atoms: _237  and  _240
REMARK  100  A    between atoms: _240  and  _241
REMARK  101  A    between atoms: _241  and  _242
REMARK  102  A    between atoms: _245  and  _247
REMARK  103  A    between atoms: _247  and  _248
REMARK  104  A    between atoms: _247  and  _250
REMARK  105  A    between atoms: _252  and  _254
REMARK  106  A    between atoms: _254  and  _255
REMARK  107  A    between atoms: _254  and  _257
REMARK  108  A    between atoms: _257  and  _258
REMARK  109  A    between atoms: _261  and  _263
REMARK  110  A    between atoms: _263  and  _264
REMARK  111  A    between atoms: _263  and  _266
REMARK  112  A    between atoms: _266  and  _267
REMARK  113  A    between atoms: _269  and  _271
REMARK  114  A    between atoms: _271  and  _272
REMARK  115  A    between atoms: _271  and  _274
REMARK  116  A    between atoms: _274  and  _275
REMARK  117  A    between atoms: _278  and  _280
REMARK  118  A    between atoms: _280  and  _281
REMARK  119  A    between atoms: _280  and  _283
REMARK  120  A    between atoms: _283  and  _284
REMARK  121  A    between atoms: _284  and  _285
REMARK  122  A    between atoms: _290  and  _292
REMARK  123  A    between atoms: _292  and  _293
REMARK  124  A    between atoms: _292  and  _295
REMARK  125  A    between atoms: _295  and  _296
REMARK  126  A    between atoms: _296  and  _297
REMARK  127  A    between atoms: _302  and  _304
REMARK  128  A    between atoms: _304  and  _305
REMARK  129  A    between atoms: _307  and  _309
REMARK  130  A    between atoms: _309  and  _310
REMARK  131  A    between atoms: _309  and  _312
REMARK  132  A    between atoms: _312  and  _313
REMARK  133  A    between atoms: _315  and  _317
REMARK  134  A    between atoms: _317  and  _318
REMARK  135  A    between atoms: _317  and  _320
REMARK  136  A    between atoms: _320  and  _321
REMARK  137  A    between atoms: _321  and  _322
REMARK  138  A    between atoms: _322  and  _323
REMARK  139  A    between atoms: _332  and  _334
REMARK  140  A    between atoms: _334  and  _335
REMARK  141  A    between atoms: _338  and  _340
REMARK  142  A    between atoms: _340  and  _341
REMARK  143  A    between atoms: _340  and  _343
REMARK  144  A    between atoms: _346  and  _348
REMARK  145  A    between atoms: _348  and  _349
REMARK  146  A    between atoms: _351  and  _353
REMARK  147  A    between atoms: _353  and  _354
REMARK  148  A    between atoms: _356  and  _358
REMARK  149  A    between atoms: _358  and  _359
REMARK  150  A    between atoms: _358  and  _361
REMARK  151  A    between atoms: _361  and  _362
REMARK  152  A    between atoms: _365  and  _367
REMARK  153  A    between atoms: _367  and  _368
REMARK  154  A    between atoms: _371  and  _373
REMARK  155  A    between atoms: _373  and  _374
REMARK  156  A    between atoms: _373  and  _376
REMARK  157  A    between atoms: _379  and  _381
REMARK  158  A    between atoms: _381  and  _382
REMARK  159  A    between atoms: _384  and  _386
REMARK  160  A    between atoms: _386  and  _387
REMARK  161  A    between atoms: _386  and  _389
REMARK  162  A    between atoms: _389  and  _390
REMARK  163  A    between atoms: _390  and  _391
REMARK  164  A    between atoms: _394  and  _396
REMARK  165  A    between atoms: _396  and  _397
REMARK  166  A    between atoms: _396  and  _399
REMARK  167  A    between atoms: _399  and  _400
REMARK  168  A    between atoms: _405  and  _406
REMARK  169  A    between atoms: _408  and  _410
REMARK  170  A    between atoms: _410  and  _411
REMARK  171  A    between atoms: _410  and  _413
REMARK  172  A    between atoms: _413  and  _414
REMARK  173  A    between atoms: _417  and  _419
REMARK  174  A    between atoms: _419  and  _420
REMARK  175  A    between atoms: _419  and  _422
REMARK  176  A    between atoms: _422  and  _423
REMARK  177  A    between atoms: _423  and  _424
REMARK  178  A    between atoms: _426  and  _428
REMARK  179  A    between atoms: _428  and  _429
REMARK  180  A    between atoms: _431  and  _433
REMARK  181  A    between atoms: _433  and  _434
REMARK  182  A    between atoms: _433  and  _436
REMARK  183  A    between atoms: _439  and  _441
REMARK  184  A    between atoms: _441  and  _442
REMARK  185  A    between atoms: _444  and  _446
REMARK  186  A    between atoms: _446  and  _447
REMARK  187  A    between atoms: _446  and  _449
REMARK  188  A    between atoms: _449  and  _450
REMARK  189  A    between atoms: _456  and  _458
REMARK  190  A    between atoms: _458  and  _459
REMARK  191  A    between atoms: _458  and  _461
REMARK  192  A    between atoms: _461  and  _462
REMARK  193  A    between atoms: _465  and  _467
REMARK  194  A    between atoms: _467  and  _468
REMARK  195  A    between atoms: _467  and  _470
REMARK  196  A    between atoms: _472  and  _474
REMARK  197  A    between atoms: _474  and  _475
REMARK  198  A    between atoms: _474  and  _477
REMARK  199  A    between atoms: _480  and  _482
REMARK  200  A    between atoms: _482  and  _483
REMARK  201  A    between atoms: _482  and  _485
REMARK  202  A    between atoms: _485  and  _486
REMARK  203  A    between atoms: _489  and  _491
REMARK  204  A    between atoms: _491  and  _492
REMARK  205  A    between atoms: _491  and  _494
REMARK  206  A    between atoms: _494  and  _495
REMARK  207  A    between atoms: _498  and  _500
REMARK  208  A    between atoms: _500  and  _501
REMARK  209  A    between atoms: _500  and  _503
REMARK  210  A    between atoms: _503  and  _504
REMARK  211  A    between atoms: _504  and  _505
REMARK  212  A    between atoms: _505  and  _506
REMARK                            x       y       z     vdW  Elec       q    Type
REMARK                         _______ _______ _______ _____ _____    ______ ____
ROOT
ATOM      1  O   HOH     1     108.656  19.624  26.203  0.00  0.00    +0.000 OA
ENDROOT
TORSDOF 0
REMARK  Name = ../refined-set-2016/4kwo/4kwo_pocket.pdb
REMARK  212 active torsions:
REMARK  status: ('A' for Active; 'I' for Inactive)
REMARK    1  A    between atoms: _1  and  _3
REMARK    2  A    between atoms: _3  and  _4
REMARK    3  A    between atoms: _3  and  _6
REMARK    4  A    between atoms: _6  and  _7
REMARK    5  A    between atoms: _7  and  _8
REMARK    6  A    between atoms: _11  and  _12
REMARK    7  A    between atoms: _17  and  _19
REMARK    8  A    between atoms: _19  and  _20
REMARK    9  A    between atoms: _19  and  _22
REMARK   10  A    between atoms: _25  and  _27
REMARK   11  A    between atoms: _27  and  _28
REMARK   12  A    between atoms: _30  and  _32
REMARK   13  A    between atoms: _32  and  _33
REMARK   14  A    between atoms: _32  and  _35
REMARK   15  A    between atoms: _35  and  _36
REMARK   16  A    between atoms: _39  and  _41
REMARK   17  A    between atoms: _41  and  _42
REMARK   18  A    between atoms: _41  and  _44
REMARK   19  A    between atoms: _44  and  _45
REMARK   20  A    between atoms: _48  and  _50
REMARK   21  A    between atoms: _50  and  _51
REMARK   22  A    between atoms: _53  and  _55
REMARK   23  A    between atoms: _55  and  _56
REMARK   24  A    between atoms: _55  and  _58
REMARK   25  A    between atoms: _58  and  _59
REMARK   26  A    between atoms: _64  and  _66
REMARK   27  A    between atoms: _66  and  _67
REMARK   28  A    between atoms: _66  and  _69
REMARK   29  A    between atoms: _69  and  _70
REMARK   30  A    between atoms: _73  and  _75
REMARK   31  A    between atoms: _75  and  _76
REMARK   32  A    between atoms: _75  and  _78
REMARK   33  A    between atoms: _78  and  _79
REMARK   34  A    between atoms: _84  and  _85
REMARK   35  A    between atoms: _87  and  _89
REMARK   36  A    between atoms: _89  and  _90
REMARK   37  A    between atoms: _89  and  _92
REMARK   38  A    between atoms: _92  and  _93
REMARK   39  A    between atoms: _98  and  _100
REMARK   40  A    between atoms: _100  and  _101
REMARK   41  A    between atoms: _100  and  _103
REMARK   42  A    between atoms: _103  and  _104
REMARK   43  A    between atoms: _107  and  _109
REMARK   44  A    between atoms: _109  and  _110
REMARK   45  A    between atoms: _109  and  _112
REMARK   46  A    between atoms: _112  and  _113
REMARK   47  A    between atoms: _116  and  _118
REMARK   48  A    between atoms: _118  and  _119
REMARK   49  A    between atoms: _118  and  _121
REMARK   50  A    between atoms: _121  and  _122
REMARK   51  A    between atoms: _125  and  _127
REMARK   52  A    between atoms: _127  and  _128
REMARK   53  A    between atoms: _127  and  _130
REMARK   54  A    between atoms: _130  and  _131
REMARK   55  A    between atoms: _133  and  _135
REMARK   56  A    between atoms: _135  and  _136
REMARK   57  A    between atoms: _138  and  _140
REMARK   58  A    between atoms: _140  and  _141
REMARK   59  A    between atoms: _143  and  _145
REMARK   60  A    between atoms: _145  and  _146
REMARK   61  A    between atoms: _145  and  _148
REMARK   62  A    between atoms: _148  and  _149
REMARK   63  A    between atoms: _154  and  _155
REMARK   64  A    between atoms: _157  and  _159
REMARK   65  A    between atoms: _159  and  _160
REMARK   66  A    between atoms: _159  and  _162
REMARK   67  A    between atoms: _162  and  _163
REMARK   68  A    between atoms: _163  and  _164
REMARK   69  A    between atoms: _169  and  _171
REMARK   70  A    between atoms: _171  and  _172
REMARK   71  A    between atoms: _171  and  _174
REMARK   72  A    between atoms: _174  and  _175
REMARK   73  A    between atoms: _178  and  _180
REMARK   74  A    between atoms: _180  and  _181
REMARK   75  A    between atoms: _180  and  _183
REMARK   76  A    between atoms: _183  and  _184
REMARK   77  A    between atoms: _184  and  _185
REMARK   78  A    between atoms: _190  and  _192
REMARK   79  A    between atoms: _192  and  _193
REMARK   80  A    between atoms: _192  and  _195
REMARK   81  A    between atoms: _195  and  _196
REMARK   82  A    between atoms: _199  and  _201
REMARK   83  A    between atoms: _201  and  _202
REMARK   84  A    between atoms: _201  and  _204
REMARK   85  A    between atoms: _204  and  _205
REMARK   86  A    between atoms: _205  and  _206
REMARK   87  A    between atoms: _208  and  _210
REMARK   88  A    between atoms: _210  and  _211
REMARK   89  A    between atoms: _214  and  _216
REMARK   90  A    between atoms: _216  and  _217
REMARK   91  A    between atoms: _216  and  _219
REMARK   92  A    between atoms: _219  and  _220
REMARK   93  A    between atoms: _226  and  _228
REMARK   94  A    between atoms: _228  and  _229
REMARK   95  A    between atoms: _228  and  _231
REMARK   96  A    between atoms: _231  and  _232
REMARK   97  A    between atoms: _235  and  _237
REMARK   98  A    between atoms: _237  and  _238
REMARK   99  A    between atoms: _237  and  _240
REMARK  100  A    between atoms: _240  and  _241
REMARK  101  A    between atoms: _241  and  _242
REMARK  102  A    between atoms: _245  and  _247
REMARK  103  A    between atoms: _247  and  _248
REMARK  104  A    between atoms: _247  and  _250
REMARK  105  A    between atoms: _252  and  _254
REMARK  106  A    between atoms: _254  and  _255
REMARK  107  A    between atoms: _254  and  _257
REMARK  108  A    between atoms: _257  and  _258
REMARK  109  A    between atoms: _261  and  _263
REMARK  110  A    between atoms: _263  and  _264
REMARK  111  A    between atoms: _263  and  _266
REMARK  112  A    between atoms: _266  and  _267
REMARK  113  A    between atoms: _269  and  _271
REMARK  114  A    between atoms: _271  and  _272
REMARK  115  A    between atoms: _271  and  _274
REMARK  116  A    between atoms: _274  and  _275
REMARK  117  A    between atoms: _278  and  _280
REMARK  118  A    between atoms: _280  and  _281
REMARK  119  A    between atoms: _280  and  _283
REMARK  120  A    between atoms: _283  and  _284
REMARK  121  A    between atoms: _284  and  _285
REMARK  122  A    between atoms: _290  and  _292
REMARK  123  A    between atoms: _292  and  _293
REMARK  124  A    between atoms: _292  and  _295
REMARK  125  A    between atoms: _295  and  _296
REMARK  126  A    between atoms: _296  and  _297
REMARK  127  A    between atoms: _302  and  _304
REMARK  128  A    between atoms: _304  and  _305
REMARK  129  A    between atoms: _307  and  _309
REMARK  130  A    between atoms: _309  and  _310
REMARK  131  A    between atoms: _309  and  _312
REMARK  132  A    between atoms: _312  and  _313
REMARK  133  A    between atoms: _315  and  _317
REMARK  134  A    between atoms: _317  and  _318
REMARK  135  A    between atoms: _317  and  _320
REMARK  136  A    between atoms: _320  and  _321
REMARK  137  A    between atoms: _321  and  _322
REMARK  138  A    between atoms: _322  and  _323
REMARK  139  A    between atoms: _332  and  _334
REMARK  140  A    between atoms: _334  and  _335
REMARK  141  A    between atoms: _338  and  _340
REMARK  142  A    between atoms: _340  and  _341
REMARK  143  A    between atoms: _340  and  _343
REMARK  144  A    between atoms: _346  and  _348
REMARK  145  A    between atoms: _348  and  _349
REMARK  146  A    between atoms: _351  and  _353
REMARK  147  A    between atoms: _353  and  _354
REMARK  148  A    between atoms: _356  and  _358
REMARK  149  A    between atoms: _358  and  _359
REMARK  150  A    between atoms: _358  and  _361
REMARK  151  A    between atoms: _361  and  _362
REMARK  152  A    between atoms: _365  and  _367
REMARK  153  A    between atoms: _367  and  _368
REMARK  154  A    between atoms: _371  and  _373
REMARK  155  A    between atoms: _373  and  _374
REMARK  156  A    between atoms: _373  and  _376
REMARK  157  A    between atoms: _379  and  _381
REMARK  158  A    between atoms: _381  and  _382
REMARK  159  A    between atoms: _384  and  _386
REMARK  160  A    between atoms: _386  and  _387
REMARK  161  A    between atoms: _386  and  _389
REMARK  162  A    between atoms: _389  and  _390
REMARK  163  A    between atoms: _390  and  _391
REMARK  164  A    between atoms: _394  and  _396
REMARK  165  A    between atoms: _396  and  _397
REMARK  166  A    between atoms: _396  and  _399
REMARK  167  A    between atoms: _399  and  _400
REMARK  168  A    between atoms: _405  and  _406
REMARK  169  A    between atoms: _408  and  _410
REMARK  170  A    between atoms: _410  and  _411
REMARK  171  A    between atoms: _410  and  _413
REMARK  172  A    between atoms: _413  and  _414
REMARK  173  A    between atoms: _417  and  _419
REMARK  174  A    between atoms: _419  and  _420
REMARK  175  A    between atoms: _419  and  _422
REMARK  176  A    between atoms: _422  and  _423
REMARK  177  A    between atoms: _423  and  _424
REMARK  178  A    between atoms: _426  and  _428
REMARK  179  A    between atoms: _428  and  _429
REMARK  180  A    between atoms: _431  and  _433
REMARK  181  A    between atoms: _433  and  _434
REMARK  182  A    between atoms: _433  and  _436
REMARK  183  A    between atoms: _439  and  _441
REMARK  184  A    between atoms: _441  and  _442
REMARK  185  A    between atoms: _444  and  _446
REMARK  186  A    between atoms: _446  and  _447
REMARK  187  A    between atoms: _446  and  _449
REMARK  188  A    between atoms: _449  and  _450
REMARK  189  A    between atoms: _456  and  _458
REMARK  190  A    between atoms: _458  and  _459
REMARK  191  A    between atoms: _458  and  _461
REMARK  192  A    between atoms: _461  and  _462
REMARK  193  A    between atoms: _465  and  _467
REMARK  194  A    between atoms: _467  and  _468
REMARK  195  A    between atoms: _467  and  _470
REMARK  196  A    between atoms: _472  and  _474
REMARK  197  A    between atoms: _474  and  _475
REMARK  198  A    between atoms: _474  and  _477
REMARK  199  A    between atoms: _480  and  _482
REMARK  200  A    between atoms: _482  and  _483
REMARK  201  A    between atoms: _482  and  _485
REMARK  202  A    between atoms: _485  and  _486
REMARK  203  A    between atoms: _489  and  _491
REMARK  204  A    between atoms: _491  and  _492
REMARK  205  A    between atoms: _491  and  _494
REMARK  206  A    between atoms: _494  and  _495
REMARK  207  A    between atoms: _498  and  _500
REMARK  208  A    between atoms: _500  and  _501
REMARK  209  A    between atoms: _500  and  _503
REMARK  210  A    between atoms: _503  and  _504
REMARK  211  A    between atoms: _504  and  _505
REMARK  212  A    between atoms: _505  and  _506
REMARK                            x       y       z     vdW  Elec       q    Type
REMARK                         _______ _______ _______ _____ _____    ______ ____
ROOT
ATOM      1  O   HOH     1     108.521  21.106  23.763  0.00  0.00    +0.000 OA
ENDROOT
TORSDOF 0
REMARK  Name = ../refined-set-2016/4kwo/4kwo_pocket.pdb
REMARK  212 active torsions:
REMARK  status: ('A' for Active; 'I' for Inactive)
REMARK    1  A    between atoms: _1  and  _3
REMARK    2  A    between atoms: _3  and  _4
REMARK    3  A    between atoms: _3  and  _6
REMARK    4  A    between atoms: _6  and  _7
REMARK    5  A    between atoms: _7  and  _8
REMARK    6  A    between atoms: _11  and  _12
REMARK    7  A    between atoms: _17  and  _19
REMARK    8  A    between atoms: _19  and  _20
REMARK    9  A    between atoms: _19  and  _22
REMARK   10  A    between atoms: _25  and  _27
REMARK   11  A    between atoms: _27  and  _28
REMARK   12  A    between atoms: _30  and  _32
REMARK   13  A    between atoms: _32  and  _33
REMARK   14  A    between atoms: _32  and  _35
REMARK   15  A    between atoms: _35  and  _36
REMARK   16  A    between atoms: _39  and  _41
REMARK   17  A    between atoms: _41  and  _42
REMARK   18  A    between atoms: _41  and  _44
REMARK   19  A    between atoms: _44  and  _45
REMARK   20  A    between atoms: _48  and  _50
REMARK   21  A    between atoms: _50  and  _51
REMARK   22  A    between atoms: _53  and  _55
REMARK   23  A    between atoms: _55  and  _56
REMARK   24  A    between atoms: _55  and  _58
REMARK   25  A    between atoms: _58  and  _59
REMARK   26  A    between atoms: _64  and  _66
REMARK   27  A    between atoms: _66  and  _67
REMARK   28  A    between atoms: _66  and  _69
REMARK   29  A    between atoms: _69  and  _70
REMARK   30  A    between atoms: _73  and  _75
REMARK   31  A    between atoms: _75  and  _76
REMARK   32  A    between atoms: _75  and  _78
REMARK   33  A    between atoms: _78  and  _79
REMARK   34  A    between atoms: _84  and  _85
REMARK   35  A    between atoms: _87  and  _89
REMARK   36  A    between atoms: _89  and  _90
REMARK   37  A    between atoms: _89  and  _92
REMARK   38  A    between atoms: _92  and  _93
REMARK   39  A    between atoms: _98  and  _100
REMARK   40  A    between atoms: _100  and  _101
REMARK   41  A    between atoms: _100  and  _103
REMARK   42  A    between atoms: _103  and  _104
REMARK   43  A    between atoms: _107  and  _109
REMARK   44  A    between atoms: _109  and  _110
REMARK   45  A    between atoms: _109  and  _112
REMARK   46  A    between atoms: _112  and  _113
REMARK   47  A    between atoms: _116  and  _118
REMARK   48  A    between atoms: _118  and  _119
REMARK   49  A    between atoms: _118  and  _121
REMARK   50  A    between atoms: _121  and  _122
REMARK   51  A    between atoms: _125  and  _127
REMARK   52  A    between atoms: _127  and  _128
REMARK   53  A    between atoms: _127  and  _130
REMARK   54  A    between atoms: _130  and  _131
REMARK   55  A    between atoms: _133  and  _135
REMARK   56  A    between atoms: _135  and  _136
REMARK   57  A    between atoms: _138  and  _140
REMARK   58  A    between atoms: _140  and  _141
REMARK   59  A    between atoms: _143  and  _145
REMARK   60  A    between atoms: _145  and  _146
REMARK   61  A    between atoms: _145  and  _148
REMARK   62  A    between atoms: _148  and  _149
REMARK   63  A    between atoms: _154  and  _155
REMARK   64  A    between atoms: _157  and  _159
REMARK   65  A    between atoms: _159  and  _160
REMARK   66  A    between atoms: _159  and  _162
REMARK   67  A    between atoms: _162  and  _163
REMARK   68  A    between atoms: _163  and  _164
REMARK   69  A    between atoms: _169  and  _171
REMARK   70  A    between atoms: _171  and  _172
REMARK   71  A    between atoms: _171  and  _174
REMARK   72  A    between atoms: _174  and  _175
REMARK   73  A    between atoms: _178  and  _180
REMARK   74  A    between atoms: _180  and  _181
REMARK   75  A    between atoms: _180  and  _183
REMARK   76  A    between atoms: _183  and  _184
REMARK   77  A    between atoms: _184  and  _185
REMARK   78  A    between atoms: _190  and  _192
REMARK   79  A    between atoms: _192  and  _193
REMARK   80  A    between atoms: _192  and  _195
REMARK   81  A    between atoms: _195  and  _196
REMARK   82  A    between atoms: _199  and  _201
REMARK   83  A    between atoms: _201  and  _202
REMARK   84  A    between atoms: _201  and  _204
REMARK   85  A    between atoms: _204  and  _205
REMARK   86  A    between atoms: _205  and  _206
REMARK   87  A    between atoms: _208  and  _210
REMARK   88  A    between atoms: _210  and  _211
REMARK   89  A    between atoms: _214  and  _216
REMARK   90  A    between atoms: _216  and  _217
REMARK   91  A    between atoms: _216  and  _219
REMARK   92  A    between atoms: _219  and  _220
REMARK   93  A    between atoms: _226  and  _228
REMARK   94  A    between atoms: _228  and  _229
REMARK   95  A    between atoms: _228  and  _231
REMARK   96  A    between atoms: _231  and  _232
REMARK   97  A    between atoms: _235  and  _237
REMARK   98  A    between atoms: _237  and  _238
REMARK   99  A    between atoms: _237  and  _240
REMARK  100  A    between atoms: _240  and  _241
REMARK  101  A    between atoms: _241  and  _242
REMARK  102  A    between atoms: _245  and  _247
REMARK  103  A    between atoms: _247  and  _248
REMARK  104  A    between atoms: _247  and  _250
REMARK  105  A    between atoms: _252  and  _254
REMARK  106  A    between atoms: _254  and  _255
REMARK  107  A    between atoms: _254  and  _257
REMARK  108  A    between atoms: _257  and  _258
REMARK  109  A    between atoms: _261  and  _263
REMARK  110  A    between atoms: _263  and  _264
REMARK  111  A    between atoms: _263  and  _266
REMARK  112  A    between atoms: _266  and  _267
REMARK  113  A    between atoms: _269  and  _271
REMARK  114  A    between atoms: _271  and  _272
REMARK  115  A    between atoms: _271  and  _274
REMARK  116  A    between atoms: _274  and  _275
REMARK  117  A    between atoms: _278  and  _280
REMARK  118  A    between atoms: _280  and  _281
REMARK  119  A    between atoms: _280  and  _283
REMARK  120  A    between atoms: _283  and  _284
REMARK  121  A    between atoms: _284  and  _285
REMARK  122  A    between atoms: _290  and  _292
REMARK  123  A    between atoms: _292  and  _293
REMARK  124  A    between atoms: _292  and  _295
REMARK  125  A    between atoms: _295  and  _296
REMARK  126  A    between atoms: _296  and  _297
REMARK  127  A    between atoms: _302  and  _304
REMARK  128  A    between atoms: _304  and  _305
REMARK  129  A    between atoms: _307  and  _309
REMARK  130  A    between atoms: _309  and  _310
REMARK  131  A    between atoms: _309  and  _312
REMARK  132  A    between atoms: _312  and  _313
REMARK  133  A    between atoms: _315  and  _317
REMARK  134  A    between atoms: _317  and  _318
REMARK  135  A    between atoms: _317  and  _320
REMARK  136  A    between atoms: _320  and  _321
REMARK  137  A    between atoms: _321  and  _322
REMARK  138  A    between atoms: _322  and  _323
REMARK  139  A    between atoms: _332  and  _334
REMARK  140  A    between atoms: _334  and  _335
REMARK  141  A    between atoms: _338  and  _340
REMARK  142  A    between atoms: _340  and  _341
REMARK  143  A    between atoms: _340  and  _343
REMARK  144  A    between atoms: _346  and  _348
REMARK  145  A    between atoms: _348  and  _349
REMARK  146  A    between atoms: _351  and  _353
REMARK  147  A    between atoms: _353  and  _354
REMARK  148  A    between atoms: _356  and  _358
REMARK  149  A    between atoms: _358  and  _359
REMARK  150  A    between atoms: _358  and  _361
REMARK  151  A    between atoms: _361  and  _362
REMARK  152  A    between atoms: _365  and  _367
REMARK  153  A    between atoms: _367  and  _368
REMARK  154  A    between atoms: _371  and  _373
REMARK  155  A    between atoms: _373  and  _374
REMARK  156  A    between atoms: _373  and  _376
REMARK  157  A    between atoms: _379  and  _381
REMARK  158  A    between atoms: _381  and  _382
REMARK  159  A    between atoms: _384  and  _386
REMARK  160  A    between atoms: _386  and  _387
REMARK  161  A    between atoms: _386  and  _389
REMARK  162  A    between atoms: _389  and  _390
REMARK  163  A    between atoms: _390  and  _391
REMARK  164  A    between atoms: _394  and  _396
REMARK  165  A    between atoms: _396  and  _397
REMARK  166  A    between atoms: _396  and  _399
REMARK  167  A    between atoms: _399  and  _400
REMARK  168  A    between atoms: _405  and  _406
REMARK  169  A    between atoms: _408  and  _410
REMARK  170  A    between atoms: _410  and  _411
REMARK  171  A    between atoms: _410  and  _413
REMARK  172  A    between atoms: _413  and  _414
REMARK  173  A    between atoms: _417  and  _419
REMARK  174  A    between atoms: _419  and  _420
REMARK  175  A    between atoms: _419  and  _422
REMARK  176  A    between atoms: _422  and  _423
REMARK  177  A    between atoms: _423  and  _424
REMARK  178  A    between atoms: _426  and  _428
REMARK  179  A    between atoms: _428  and  _429
REMARK  180  A    between atoms: _431  and  _433
REMARK  181  A    between atoms: _433  and  _434
REMARK  182  A    between atoms: _433  and  _436
REMARK  183  A    between atoms: _439  and  _441
REMARK  184  A    between atoms: _441  and  _442
REMARK  185  A    between atoms: _444  and  _446
REMARK  186  A    between atoms: _446  and  _447
REMARK  187  A    between atoms: _446  and  _449
REMARK  188  A    between atoms: _449  and  _450
REMARK  189  A    between atoms: _456  and  _458
REMARK  190  A    between atoms: _458  and  _459
REMARK  191  A    between atoms: _458  and  _461
REMARK  192  A    between atoms: _461  and  _462
REMARK  193  A    between atoms: _465  and  _467
REMARK  194  A    between atoms: _467  and  _468
REMARK  195  A    between atoms: _467  and  _470
REMARK  196  A    between atoms: _472  and  _474
REMARK  197  A    between atoms: _474  and  _475
REMARK  198  A    between atoms: _474  and  _477
REMARK  199  A    between atoms: _480  and  _482
REMARK  200  A    between atoms: _482  and  _483
REMARK  201  A    between atoms: _482  and  _485
REMARK  202  A    between atoms: _485  and  _486
REMARK  203  A    between atoms: _489  and  _491
REMARK  204  A    between atoms: _491  and  _492
REMARK  205  A    between atoms: _491  and  _494
REMARK  206  A    between atoms: _494  and  _495
REMARK  207  A    between atoms: _498  and  _500
REMARK  208  A    between atoms: _500  and  _501
REMARK  209  A    between atoms: _500  and  _503
REMARK  210  A    between atoms: _503  and  _504
REMARK  211  A    between atoms: _504  and  _505
REMARK  212  A    between atoms: _505  and  _506
REMARK                            x       y       z     vdW  Elec       q    Type
REMARK                         _______ _______ _______ _____ _____    ______ ____
ROOT
ATOM      1  O   HOH     1     105.426  20.249  30.161  0.00  0.00    +0.000 OA
ENDROOT
TORSDOF 0
REMARK  Name = ../refined-set-2016/4kwo/4kwo_pocket.pdb
REMARK  212 active torsions:
REMARK  status: ('A' for Active; 'I' for Inactive)
REMARK    1  A    between atoms: _1  and  _3
REMARK    2  A    between atoms: _3  and  _4
REMARK    3  A    between atoms: _3  and  _6
REMARK    4  A    between atoms: _6  and  _7
REMARK    5  A    between atoms: _7  and  _8
REMARK    6  A    between atoms: _11  and  _12
REMARK    7  A    between atoms: _17  and  _19
REMARK    8  A    between atoms: _19  and  _20
REMARK    9  A    between atoms: _19  and  _22
REMARK   10  A    between atoms: _25  and  _27
REMARK   11  A    between atoms: _27  and  _28
REMARK   12  A    between atoms: _30  and  _32
REMARK   13  A    between atoms: _32  and  _33
REMARK   14  A    between atoms: _32  and  _35
REMARK   15  A    between atoms: _35  and  _36
REMARK   16  A    between atoms: _39  and  _41
REMARK   17  A    between atoms: _41  and  _42
REMARK   18  A    between atoms: _41  and  _44
REMARK   19  A    between atoms: _44  and  _45
REMARK   20  A    between atoms: _48  and  _50
REMARK   21  A    between atoms: _50  and  _51
REMARK   22  A    between atoms: _53  and  _55
REMARK   23  A    between atoms: _55  and  _56
REMARK   24  A    between atoms: _55  and  _58
REMARK   25  A    between atoms: _58  and  _59
REMARK   26  A    between atoms: _64  and  _66
REMARK   27  A    between atoms: _66  and  _67
REMARK   28  A    between atoms: _66  and  _69
REMARK   29  A    between atoms: _69  and  _70
REMARK   30  A    between atoms: _73  and  _75
REMARK   31  A    between atoms: _75  and  _76
REMARK   32  A    between atoms: _75  and  _78
REMARK   33  A    between atoms: _78  and  _79
REMARK   34  A    between atoms: _84  and  _85
REMARK   35  A    between atoms: _87  and  _89
REMARK   36  A    between atoms: _89  and  _90
REMARK   37  A    between atoms: _89  and  _92
REMARK   38  A    between atoms: _92  and  _93
REMARK   39  A    between atoms: _98  and  _100
REMARK   40  A    between atoms: _100  and  _101
REMARK   41  A    between atoms: _100  and  _103
REMARK   42  A    between atoms: _103  and  _104
REMARK   43  A    between atoms: _107  and  _109
REMARK   44  A    between atoms: _109  and  _110
REMARK   45  A    between atoms: _109  and  _112
REMARK   46  A    between atoms: _112  and  _113
REMARK   47  A    between atoms: _116  and  _118
REMARK   48  A    between atoms: _118  and  _119
REMARK   49  A    between atoms: _118  and  _121
REMARK   50  A    between atoms: _121  and  _122
REMARK   51  A    between atoms: _125  and  _127
REMARK   52  A    between atoms: _127  and  _128
REMARK   53  A    between atoms: _127  and  _130
REMARK   54  A    between atoms: _130  and  _131
REMARK   55  A    between atoms: _133  and  _135
REMARK   56  A    between atoms: _135  and  _136
REMARK   57  A    between atoms: _138  and  _140
REMARK   58  A    between atoms: _140  and  _141
REMARK   59  A    between atoms: _143  and  _145
REMARK   60  A    between atoms: _145  and  _146
REMARK   61  A    between atoms: _145  and  _148
REMARK   62  A    between atoms: _148  and  _149
REMARK   63  A    between atoms: _154  and  _155
REMARK   64  A    between atoms: _157  and  _159
REMARK   65  A    between atoms: _159  and  _160
REMARK   66  A    between atoms: _159  and  _162
REMARK   67  A    between atoms: _162  and  _163
REMARK   68  A    between atoms: _163  and  _164
REMARK   69  A    between atoms: _169  and  _171
REMARK   70  A    between atoms: _171  and  _172
REMARK   71  A    between atoms: _171  and  _174
REMARK   72  A    between atoms: _174  and  _175
REMARK   73  A    between atoms: _178  and  _180
REMARK   74  A    between atoms: _180  and  _181
REMARK   75  A    between atoms: _180  and  _183
REMARK   76  A    between atoms: _183  and  _184
REMARK   77  A    between atoms: _184  and  _185
REMARK   78  A    between atoms: _190  and  _192
REMARK   79  A    between atoms: _192  and  _193
REMARK   80  A    between atoms: _192  and  _195
REMARK   81  A    between atoms: _195  and  _196
REMARK   82  A    between atoms: _199  and  _201
REMARK   83  A    between atoms: _201  and  _202
REMARK   84  A    between atoms: _201  and  _204
REMARK   85  A    between atoms: _204  and  _205
REMARK   86  A    between atoms: _205  and  _206
REMARK   87  A    between atoms: _208  and  _210
REMARK   88  A    between atoms: _210  and  _211
REMARK   89  A    between atoms: _214  and  _216
REMARK   90  A    between atoms: _216  and  _217
REMARK   91  A    between atoms: _216  and  _219
REMARK   92  A    between atoms: _219  and  _220
REMARK   93  A    between atoms: _226  and  _228
REMARK   94  A    between atoms: _228  and  _229
REMARK   95  A    between atoms: _228  and  _231
REMARK   96  A    between atoms: _231  and  _232
REMARK   97  A    between atoms: _235  and  _237
REMARK   98  A    between atoms: _237  and  _238
REMARK   99  A    between atoms: _237  and  _240
REMARK  100  A    between atoms: _240  and  _241
REMARK  101  A    between atoms: _241  and  _242
REMARK  102  A    between atoms: _245  and  _247
REMARK  103  A    between atoms: _247  and  _248
REMARK  104  A    between atoms: _247  and  _250
REMARK  105  A    between atoms: _252  and  _254
REMARK  106  A    between atoms: _254  and  _255
REMARK  107  A    between atoms: _254  and  _257
REMARK  108  A    between atoms: _257  and  _258
REMARK  109  A    between atoms: _261  and  _263
REMARK  110  A    between atoms: _263  and  _264
REMARK  111  A    between atoms: _263  and  _266
REMARK  112  A    between atoms: _266  and  _267
REMARK  113  A    between atoms: _269  and  _271
REMARK  114  A    between atoms: _271  and  _272
REMARK  115  A    between atoms: _271  and  _274
REMARK  116  A    between atoms: _274  and  _275
REMARK  117  A    between atoms: _278  and  _280
REMARK  118  A    between atoms: _280  and  _281
REMARK  119  A    between atoms: _280  and  _283
REMARK  120  A    between atoms: _283  and  _284
REMARK  121  A    between atoms: _284  and  _285
REMARK  122  A    between atoms: _290  and  _292
REMARK  123  A    between atoms: _292  and  _293
REMARK  124  A    between atoms: _292  and  _295
REMARK  125  A    between atoms: _295  and  _296
REMARK  126  A    between atoms: _296  and  _297
REMARK  127  A    between atoms: _302  and  _304
REMARK  128  A    between atoms: _304  and  _305
REMARK  129  A    between atoms: _307  and  _309
REMARK  130  A    between atoms: _309  and  _310
REMARK  131  A    between atoms: _309  and  _312
REMARK  132  A    between atoms: _312  and  _313
REMARK  133  A    between atoms: _315  and  _317
REMARK  134  A    between atoms: _317  and  _318
REMARK  135  A    between atoms: _317  and  _320
REMARK  136  A    between atoms: _320  and  _321
REMARK  137  A    between atoms: _321  and  _322
REMARK  138  A    between atoms: _322  and  _323
REMARK  139  A    between atoms: _332  and  _334
REMARK  140  A    between atoms: _334  and  _335
REMARK  141  A    between atoms: _338  and  _340
REMARK  142  A    between atoms: _340  and  _341
REMARK  143  A    between atoms: _340  and  _343
REMARK  144  A    between atoms: _346  and  _348
REMARK  145  A    between atoms: _348  and  _349
REMARK  146  A    between atoms: _351  and  _353
REMARK  147  A    between atoms: _353  and  _354
REMARK  148  A    between atoms: _356  and  _358
REMARK  149  A    between atoms: _358  and  _359
REMARK  150  A    between atoms: _358  and  _361
REMARK  151  A    between atoms: _361  and  _362
REMARK  152  A    between atoms: _365  and  _367
REMARK  153  A    between atoms: _367  and  _368
REMARK  154  A    between atoms: _371  and  _373
REMARK  155  A    between atoms: _373  and  _374
REMARK  156  A    between atoms: _373  and  _376
REMARK  157  A    between atoms: _379  and  _381
REMARK  158  A    between atoms: _381  and  _382
REMARK  159  A    between atoms: _384  and  _386
REMARK  160  A    between atoms: _386  and  _387
REMARK  161  A    between atoms: _386  and  _389
REMARK  162  A    between atoms: _389  and  _390
REMARK  163  A    between atoms: _390  and  _391
REMARK  164  A    between atoms: _394  and  _396
REMARK  165  A    between atoms: _396  and  _397
REMARK  166  A    between atoms: _396  and  _399
REMARK  167  A    between atoms: _399  and  _400
REMARK  168  A    between atoms: _405  and  _406
REMARK  169  A    between atoms: _408  and  _410
REMARK  170  A    between atoms: _410  and  _411
REMARK  171  A    between atoms: _410  and  _413
REMARK  172  A    between atoms: _413  and  _414
REMARK  173  A    between atoms: _417  and  _419
REMARK  174  A    between atoms: _419  and  _420
REMARK  175  A    between atoms: _419  and  _422
REMARK  176  A    between atoms: _422  and  _423
REMARK  177  A    between atoms: _423  and  _424
REMARK  178  A    between atoms: _426  and  _428
REMARK  179  A    between atoms: _428  and  _429
REMARK  180  A    between atoms: _431  and  _433
REMARK  181  A    between atoms: _433  and  _434
REMARK  182  A    between atoms: _433  and  _436
REMARK  183  A    between atoms: _439  and  _441
REMARK  184  A    between atoms: _441  and  _442
REMARK  185  A    between atoms: _444  and  _446
REMARK  186  A    between atoms: _446  and  _447
REMARK  187  A    between atoms: _446  and  _449
REMARK  188  A    between atoms: _449  and  _450
REMARK  189  A    between atoms: _456  and  _458
REMARK  190  A    between atoms: _458  and  _459
REMARK  191  A    between atoms: _458  and  _461
REMARK  192  A    between atoms: _461  and  _462
REMARK  193  A    between atoms: _465  and  _467
REMARK  194  A    between atoms: _467  and  _468
REMARK  195  A    between atoms: _467  and  _470
REMARK  196  A    between atoms: _472  and  _474
REMARK  197  A    between atoms: _474  and  _475
REMARK  198  A    between atoms: _474  and  _477
REMARK  199  A    between atoms: _480  and  _482
REMARK  200  A    between atoms: _482  and  _483
REMARK  201  A    between atoms: _482  and  _485
REMARK  202  A    between atoms: _485  and  _486
REMARK  203  A    between atoms: _489  and  _491
REMARK  204  A    between atoms: _491  and  _492
REMARK  205  A    between atoms: _491  and  _494
REMARK  206  A    between atoms: _494  and  _495
REMARK  207  A    between atoms: _498  and  _500
REMARK  208  A    between atoms: _500  and  _501
REMARK  209  A    between atoms: _500  and  _503
REMARK  210  A    between atoms: _503  and  _504
REMARK  211  A    between atoms: _504  and  _505
REMARK  212  A    between atoms: _505  and  _506
REMARK                            x       y       z     vdW  Elec       q    Type
REMARK                         _______ _______ _______ _____ _____    ______ ____
ROOT
ATOM      1  O   HOH     1      87.179  10.763  16.630  0.00  0.00    +0.000 OA
ENDROOT
TORSDOF 0
REMARK  Name = ../refined-set-2016/4kwo/4kwo_pocket.pdb
REMARK  212 active torsions:
REMARK  status: ('A' for Active; 'I' for Inactive)
REMARK    1  A    between atoms: _1  and  _3
REMARK    2  A    between atoms: _3  and  _4
REMARK    3  A    between atoms: _3  and  _6
REMARK    4  A    between atoms: _6  and  _7
REMARK    5  A    between atoms: _7  and  _8
REMARK    6  A    between atoms: _11  and  _12
REMARK    7  A    between atoms: _17  and  _19
REMARK    8  A    between atoms: _19  and  _20
REMARK    9  A    between atoms: _19  and  _22
REMARK   10  A    between atoms: _25  and  _27
REMARK   11  A    between atoms: _27  and  _28
REMARK   12  A    between atoms: _30  and  _32
REMARK   13  A    between atoms: _32  and  _33
REMARK   14  A    between atoms: _32  and  _35
REMARK   15  A    between atoms: _35  and  _36
REMARK   16  A    between atoms: _39  and  _41
REMARK   17  A    between atoms: _41  and  _42
REMARK   18  A    between atoms: _41  and  _44
REMARK   19  A    between atoms: _44  and  _45
REMARK   20  A    between atoms: _48  and  _50
REMARK   21  A    between atoms: _50  and  _51
REMARK   22  A    between atoms: _53  and  _55
REMARK   23  A    between atoms: _55  and  _56
REMARK   24  A    between atoms: _55  and  _58
REMARK   25  A    between atoms: _58  and  _59
REMARK   26  A    between atoms: _64  and  _66
REMARK   27  A    between atoms: _66  and  _67
REMARK   28  A    between atoms: _66  and  _69
REMARK   29  A    between atoms: _69  and  _70
REMARK   30  A    between atoms: _73  and  _75
REMARK   31  A    between atoms: _75  and  _76
REMARK   32  A    between atoms: _75  and  _78
REMARK   33  A    between atoms: _78  and  _79
REMARK   34  A    between atoms: _84  and  _85
REMARK   35  A    between atoms: _87  and  _89
REMARK   36  A    between atoms: _89  and  _90
REMARK   37  A    between atoms: _89  and  _92
REMARK   38  A    between atoms: _92  and  _93
REMARK   39  A    between atoms: _98  and  _100
REMARK   40  A    between atoms: _100  and  _101
REMARK   41  A    between atoms: _100  and  _103
REMARK   42  A    between atoms: _103  and  _104
REMARK   43  A    between atoms: _107  and  _109
REMARK   44  A    between atoms: _109  and  _110
REMARK   45  A    between atoms: _109  and  _112
REMARK   46  A    between atoms: _112  and  _113
REMARK   47  A    between atoms: _116  and  _118
REMARK   48  A    between atoms: _118  and  _119
REMARK   49  A    between atoms: _118  and  _121
REMARK   50  A    between atoms: _121  and  _122
REMARK   51  A    between atoms: _125  and  _127
REMARK   52  A    between atoms: _127  and  _128
REMARK   53  A    between atoms: _127  and  _130
REMARK   54  A    between atoms: _130  and  _131
REMARK   55  A    between atoms: _133  and  _135
REMARK   56  A    between atoms: _135  and  _136
REMARK   57  A    between atoms: _138  and  _140
REMARK   58  A    between atoms: _140  and  _141
REMARK   59  A    between atoms: _143  and  _145
REMARK   60  A    between atoms: _145  and  _146
REMARK   61  A    between atoms: _145  and  _148
REMARK   62  A    between atoms: _148  and  _149
REMARK   63  A    between atoms: _154  and  _155
REMARK   64  A    between atoms: _157  and  _159
REMARK   65  A    between atoms: _159  and  _160
REMARK   66  A    between atoms: _159  and  _162
REMARK   67  A    between atoms: _162  and  _163
REMARK   68  A    between atoms: _163  and  _164
REMARK   69  A    between atoms: _169  and  _171
REMARK   70  A    between atoms: _171  and  _172
REMARK   71  A    between atoms: _171  and  _174
REMARK   72  A    between atoms: _174  and  _175
REMARK   73  A    between atoms: _178  and  _180
REMARK   74  A    between atoms: _180  and  _181
REMARK   75  A    between atoms: _180  and  _183
REMARK   76  A    between atoms: _183  and  _184
REMARK   77  A    between atoms: _184  and  _185
REMARK   78  A    between atoms: _190  and  _192
REMARK   79  A    between atoms: _192  and  _193
REMARK   80  A    between atoms: _192  and  _195
REMARK   81  A    between atoms: _195  and  _196
REMARK   82  A    between atoms: _199  and  _201
REMARK   83  A    between atoms: _201  and  _202
REMARK   84  A    between atoms: _201  and  _204
REMARK   85  A    between atoms: _204  and  _205
REMARK   86  A    between atoms: _205  and  _206
REMARK   87  A    between atoms: _208  and  _210
REMARK   88  A    between atoms: _210  and  _211
REMARK   89  A    between atoms: _214  and  _216
REMARK   90  A    between atoms: _216  and  _217
REMARK   91  A    between atoms: _216  and  _219
REMARK   92  A    between atoms: _219  and  _220
REMARK   93  A    between atoms: _226  and  _228
REMARK   94  A    between atoms: _228  and  _229
REMARK   95  A    between atoms: _228  and  _231
REMARK   96  A    between atoms: _231  and  _232
REMARK   97  A    between atoms: _235  and  _237
REMARK   98  A    between atoms: _237  and  _238
REMARK   99  A    between atoms: _237  and  _240
REMARK  100  A    between atoms: _240  and  _241
REMARK  101  A    between atoms: _241  and  _242
REMARK  102  A    between atoms: _245  and  _247
REMARK  103  A    between atoms: _247  and  _248
REMARK  104  A    between atoms: _247  and  _250
REMARK  105  A    between atoms: _252  and  _254
REMARK  106  A    between atoms: _254  and  _255
REMARK  107  A    between atoms: _254  and  _257
REMARK  108  A    between atoms: _257  and  _258
REMARK  109  A    between atoms: _261  and  _263
REMARK  110  A    between atoms: _263  and  _264
REMARK  111  A    between atoms: _263  and  _266
REMARK  112  A    between atoms: _266  and  _267
REMARK  113  A    between atoms: _269  and  _271
REMARK  114  A    between atoms: _271  and  _272
REMARK  115  A    between atoms: _271  and  _274
REMARK  116  A    between atoms: _274  and  _275
REMARK  117  A    between atoms: _278  and  _280
REMARK  118  A    between atoms: _280  and  _281
REMARK  119  A    between atoms: _280  and  _283
REMARK  120  A    between atoms: _283  and  _284
REMARK  121  A    between atoms: _284  and  _285
REMARK  122  A    between atoms: _290  and  _292
REMARK  123  A    between atoms: _292  and  _293
REMARK  124  A    between atoms: _292  and  _295
REMARK  125  A    between atoms: _295  and  _296
REMARK  126  A    between atoms: _296  and  _297
REMARK  127  A    between atoms: _302  and  _304
REMARK  128  A    between atoms: _304  and  _305
REMARK  129  A    between atoms: _307  and  _309
REMARK  130  A    between atoms: _309  and  _310
REMARK  131  A    between atoms: _309  and  _312
REMARK  132  A    between atoms: _312  and  _313
REMARK  133  A    between atoms: _315  and  _317
REMARK  134  A    between atoms: _317  and  _318
REMARK  135  A    between atoms: _317  and  _320
REMARK  136  A    between atoms: _320  and  _321
REMARK  137  A    between atoms: _321  and  _322
REMARK  138  A    between atoms: _322  and  _323
REMARK  139  A    between atoms: _332  and  _334
REMARK  140  A    between atoms: _334  and  _335
REMARK  141  A    between atoms: _338  and  _340
REMARK  142  A    between atoms: _340  and  _341
REMARK  143  A    between atoms: _340  and  _343
REMARK  144  A    between atoms: _346  and  _348
REMARK  145  A    between atoms: _348  and  _349
REMARK  146  A    between atoms: _351  and  _353
REMARK  147  A    between atoms: _353  and  _354
REMARK  148  A    between atoms: _356  and  _358
REMARK  149  A    between atoms: _358  and  _359
REMARK  150  A    between atoms: _358  and  _361
REMARK  151  A    between atoms: _361  and  _362
REMARK  152  A    between atoms: _365  and  _367
REMARK  153  A    between atoms: _367  and  _368
REMARK  154  A    between atoms: _371  and  _373
REMARK  155  A    between atoms: _373  and  _374
REMARK  156  A    between atoms: _373  and  _376
REMARK  157  A    between atoms: _379  and  _381
REMARK  158  A    between atoms: _381  and  _382
REMARK  159  A    between atoms: _384  and  _386
REMARK  160  A    between atoms: _386  and  _387
REMARK  161  A    between atoms: _386  and  _389
REMARK  162  A    between atoms: _389  and  _390
REMARK  163  A    between atoms: _390  and  _391
REMARK  164  A    between atoms: _394  and  _396
REMARK  165  A    between atoms: _396  and  _397
REMARK  166  A    between atoms: _396  and  _399
REMARK  167  A    between atoms: _399  and  _400
REMARK  168  A    between atoms: _405  and  _406
REMARK  169  A    between atoms: _408  and  _410
REMARK  170  A    between atoms: _410  and  _411
REMARK  171  A    between atoms: _410  and  _413
REMARK  172  A    between atoms: _413  and  _414
REMARK  173  A    between atoms: _417  and  _419
REMARK  174  A    between atoms: _419  and  _420
REMARK  175  A    between atoms: _419  and  _422
REMARK  176  A    between atoms: _422  and  _423
REMARK  177  A    between atoms: _423  and  _424
REMARK  178  A    between atoms: _426  and  _428
REMARK  179  A    between atoms: _428  and  _429
REMARK  180  A    between atoms: _431  and  _433
REMARK  181  A    between atoms: _433  and  _434
REMARK  182  A    between atoms: _433  and  _436
REMARK  183  A    between atoms: _439  and  _441
REMARK  184  A    between atoms: _441  and  _442
REMARK  185  A    between atoms: _444  and  _446
REMARK  186  A    between atoms: _446  and  _447
REMARK  187  A    between atoms: _446  and  _449
REMARK  188  A    between atoms: _449  and  _450
REMARK  189  A    between atoms: _456  and  _458
REMARK  190  A    between atoms: _458  and  _459
REMARK  191  A    between atoms: _458  and  _461
REMARK  192  A    between atoms: _461  and  _462
REMARK  193  A    between atoms: _465  and  _467
REMARK  194  A    between atoms: _467  and  _468
REMARK  195  A    between atoms: _467  and  _470
REMARK  196  A    between atoms: _472  and  _474
REMARK  197  A    between atoms: _474  and  _475
REMARK  198  A    between atoms: _474  and  _477
REMARK  199  A    between atoms: _480  and  _482
REMARK  200  A    between atoms: _482  and  _483
REMARK  201  A    between atoms: _482  and  _485
REMARK  202  A    between atoms: _485  and  _486
REMARK  203  A    between atoms: _489  and  _491
REMARK  204  A    between atoms: _491  and  _492
REMARK  205  A    between atoms: _491  and  _494
REMARK  206  A    between atoms: _494  and  _495
REMARK  207  A    between atoms: _498  and  _500
REMARK  208  A    between atoms: _500  and  _501
REMARK  209  A    between atoms: _500  and  _503
REMARK  210  A    between atoms: _503  and  _504
REMARK  211  A    between atoms: _504  and  _505
REMARK  212  A    between atoms: _505  and  _506
REMARK                            x       y       z     vdW  Elec       q    Type
REMARK                         _______ _______ _______ _____ _____    ______ ____
ROOT
ATOM      1  O   HOH     1      98.982  16.613  16.573  0.00  0.00    +0.000 OA
ENDROOT
TORSDOF 0
REMARK  Name = ../refined-set-2016/4kwo/4kwo_pocket.pdb
REMARK  212 active torsions:
REMARK  status: ('A' for Active; 'I' for Inactive)
REMARK    1  A    between atoms: _1  and  _3
REMARK    2  A    between atoms: _3  and  _4
REMARK    3  A    between atoms: _3  and  _6
REMARK    4  A    between atoms: _6  and  _7
REMARK    5  A    between atoms: _7  and  _8
REMARK    6  A    between atoms: _11  and  _12
REMARK    7  A    between atoms: _17  and  _19
REMARK    8  A    between atoms: _19  and  _20
REMARK    9  A    between atoms: _19  and  _22
REMARK   10  A    between atoms: _25  and  _27
REMARK   11  A    between atoms: _27  and  _28
REMARK   12  A    between atoms: _30  and  _32
REMARK   13  A    between atoms: _32  and  _33
REMARK   14  A    between atoms: _32  and  _35
REMARK   15  A    between atoms: _35  and  _36
REMARK   16  A    between atoms: _39  and  _41
REMARK   17  A    between atoms: _41  and  _42
REMARK   18  A    between atoms: _41  and  _44
REMARK   19  A    between atoms: _44  and  _45
REMARK   20  A    between atoms: _48  and  _50
REMARK   21  A    between atoms: _50  and  _51
REMARK   22  A    between atoms: _53  and  _55
REMARK   23  A    between atoms: _55  and  _56
REMARK   24  A    between atoms: _55  and  _58
REMARK   25  A    between atoms: _58  and  _59
REMARK   26  A    between atoms: _64  and  _66
REMARK   27  A    between atoms: _66  and  _67
REMARK   28  A    between atoms: _66  and  _69
REMARK   29  A    between atoms: _69  and  _70
REMARK   30  A    between atoms: _73  and  _75
REMARK   31  A    between atoms: _75  and  _76
REMARK   32  A    between atoms: _75  and  _78
REMARK   33  A    between atoms: _78  and  _79
REMARK   34  A    between atoms: _84  and  _85
REMARK   35  A    between atoms: _87  and  _89
REMARK   36  A    between atoms: _89  and  _90
REMARK   37  A    between atoms: _89  and  _92
REMARK   38  A    between atoms: _92  and  _93
REMARK   39  A    between atoms: _98  and  _100
REMARK   40  A    between atoms: _100  and  _101
REMARK   41  A    between atoms: _100  and  _103
REMARK   42  A    between atoms: _103  and  _104
REMARK   43  A    between atoms: _107  and  _109
REMARK   44  A    between atoms: _109  and  _110
REMARK   45  A    between atoms: _109  and  _112
REMARK   46  A    between atoms: _112  and  _113
REMARK   47  A    between atoms: _116  and  _118
REMARK   48  A    between atoms: _118  and  _119
REMARK   49  A    between atoms: _118  and  _121
REMARK   50  A    between atoms: _121  and  _122
REMARK   51  A    between atoms: _125  and  _127
REMARK   52  A    between atoms: _127  and  _128
REMARK   53  A    between atoms: _127  and  _130
REMARK   54  A    between atoms: _130  and  _131
REMARK   55  A    between atoms: _133  and  _135
REMARK   56  A    between atoms: _135  and  _136
REMARK   57  A    between atoms: _138  and  _140
REMARK   58  A    between atoms: _140  and  _141
REMARK   59  A    between atoms: _143  and  _145
REMARK   60  A    between atoms: _145  and  _146
REMARK   61  A    between atoms: _145  and  _148
REMARK   62  A    between atoms: _148  and  _149
REMARK   63  A    between atoms: _154  and  _155
REMARK   64  A    between atoms: _157  and  _159
REMARK   65  A    between atoms: _159  and  _160
REMARK   66  A    between atoms: _159  and  _162
REMARK   67  A    between atoms: _162  and  _163
REMARK   68  A    between atoms: _163  and  _164
REMARK   69  A    between atoms: _169  and  _171
REMARK   70  A    between atoms: _171  and  _172
REMARK   71  A    between atoms: _171  and  _174
REMARK   72  A    between atoms: _174  and  _175
REMARK   73  A    between atoms: _178  and  _180
REMARK   74  A    between atoms: _180  and  _181
REMARK   75  A    between atoms: _180  and  _183
REMARK   76  A    between atoms: _183  and  _184
REMARK   77  A    between atoms: _184  and  _185
REMARK   78  A    between atoms: _190  and  _192
REMARK   79  A    between atoms: _192  and  _193
REMARK   80  A    between atoms: _192  and  _195
REMARK   81  A    between atoms: _195  and  _196
REMARK   82  A    between atoms: _199  and  _201
REMARK   83  A    between atoms: _201  and  _202
REMARK   84  A    between atoms: _201  and  _204
REMARK   85  A    between atoms: _204  and  _205
REMARK   86  A    between atoms: _205  and  _206
REMARK   87  A    between atoms: _208  and  _210
REMARK   88  A    between atoms: _210  and  _211
REMARK   89  A    between atoms: _214  and  _216
REMARK   90  A    between atoms: _216  and  _217
REMARK   91  A    between atoms: _216  and  _219
REMARK   92  A    between atoms: _219  and  _220
REMARK   93  A    between atoms: _226  and  _228
REMARK   94  A    between atoms: _228  and  _229
REMARK   95  A    between atoms: _228  and  _231
REMARK   96  A    between atoms: _231  and  _232
REMARK   97  A    between atoms: _235  and  _237
REMARK   98  A    between atoms: _237  and  _238
REMARK   99  A    between atoms: _237  and  _240
REMARK  100  A    between atoms: _240  and  _241
REMARK  101  A    between atoms: _241  and  _242
REMARK  102  A    between atoms: _245  and  _247
REMARK  103  A    between atoms: _247  and  _248
REMARK  104  A    between atoms: _247  and  _250
REMARK  105  A    between atoms: _252  and  _254
REMARK  106  A    between atoms: _254  and  _255
REMARK  107  A    between atoms: _254  and  _257
REMARK  108  A    between atoms: _257  and  _258
REMARK  109  A    between atoms: _261  and  _263
REMARK  110  A    between atoms: _263  and  _264
REMARK  111  A    between atoms: _263  and  _266
REMARK  112  A    between atoms: _266  and  _267
REMARK  113  A    between atoms: _269  and  _271
REMARK  114  A    between atoms: _271  and  _272
REMARK  115  A    between atoms: _271  and  _274
REMARK  116  A    between atoms: _274  and  _275
REMARK  117  A    between atoms: _278  and  _280
REMARK  118  A    between atoms: _280  and  _281
REMARK  119  A    between atoms: _280  and  _283
REMARK  120  A    between atoms: _283  and  _284
REMARK  121  A    between atoms: _284  and  _285
REMARK  122  A    between atoms: _290  and  _292
REMARK  123  A    between atoms: _292  and  _293
REMARK  124  A    between atoms: _292  and  _295
REMARK  125  A    between atoms: _295  and  _296
REMARK  126  A    between atoms: _296  and  _297
REMARK  127  A    between atoms: _302  and  _304
REMARK  128  A    between atoms: _304  and  _305
REMARK  129  A    between atoms: _307  and  _309
REMARK  130  A    between atoms: _309  and  _310
REMARK  131  A    between atoms: _309  and  _312
REMARK  132  A    between atoms: _312  and  _313
REMARK  133  A    between atoms: _315  and  _317
REMARK  134  A    between atoms: _317  and  _318
REMARK  135  A    between atoms: _317  and  _320
REMARK  136  A    between atoms: _320  and  _321
REMARK  137  A    between atoms: _321  and  _322
REMARK  138  A    between atoms: _322  and  _323
REMARK  139  A    between atoms: _332  and  _334
REMARK  140  A    between atoms: _334  and  _335
REMARK  141  A    between atoms: _338  and  _340
REMARK  142  A    between atoms: _340  and  _341
REMARK  143  A    between atoms: _340  and  _343
REMARK  144  A    between atoms: _346  and  _348
REMARK  145  A    between atoms: _348  and  _349
REMARK  146  A    between atoms: _351  and  _353
REMARK  147  A    between atoms: _353  and  _354
REMARK  148  A    between atoms: _356  and  _358
REMARK  149  A    between atoms: _358  and  _359
REMARK  150  A    between atoms: _358  and  _361
REMARK  151  A    between atoms: _361  and  _362
REMARK  152  A    between atoms: _365  and  _367
REMARK  153  A    between atoms: _367  and  _368
REMARK  154  A    between atoms: _371  and  _373
REMARK  155  A    between atoms: _373  and  _374
REMARK  156  A    between atoms: _373  and  _376
REMARK  157  A    between atoms: _379  and  _381
REMARK  158  A    between atoms: _381  and  _382
REMARK  159  A    between atoms: _384  and  _386
REMARK  160  A    between atoms: _386  and  _387
REMARK  161  A    between atoms: _386  and  _389
REMARK  162  A    between atoms: _389  and  _390
REMARK  163  A    between atoms: _390  and  _391
REMARK  164  A    between atoms: _394  and  _396
REMARK  165  A    between atoms: _396  and  _397
REMARK  166  A    between atoms: _396  and  _399
REMARK  167  A    between atoms: _399  and  _400
REMARK  168  A    between atoms: _405  and  _406
REMARK  169  A    between atoms: _408  and  _410
REMARK  170  A    between atoms: _410  and  _411
REMARK  171  A    between atoms: _410  and  _413
REMARK  172  A    between atoms: _413  and  _414
REMARK  173  A    between atoms: _417  and  _419
REMARK  174  A    between atoms: _419  and  _420
REMARK  175  A    between atoms: _419  and  _422
REMARK  176  A    between atoms: _422  and  _423
REMARK  177  A    between atoms: _423  and  _424
REMARK  178  A    between atoms: _426  and  _428
REMARK  179  A    between atoms: _428  and  _429
REMARK  180  A    between atoms: _431  and  _433
REMARK  181  A    between atoms: _433  and  _434
REMARK  182  A    between atoms: _433  and  _436
REMARK  183  A    between atoms: _439  and  _441
REMARK  184  A    between atoms: _441  and  _442
REMARK  185  A    between atoms: _444  and  _446
REMARK  186  A    between atoms: _446  and  _447
REMARK  187  A    between atoms: _446  and  _449
REMARK  188  A    between atoms: _449  and  _450
REMARK  189  A    between atoms: _456  and  _458
REMARK  190  A    between atoms: _458  and  _459
REMARK  191  A    between atoms: _458  and  _461
REMARK  192  A    between atoms: _461  and  _462
REMARK  193  A    between atoms: _465  and  _467
REMARK  194  A    between atoms: _467  and  _468
REMARK  195  A    between atoms: _467  and  _470
REMARK  196  A    between atoms: _472  and  _474
REMARK  197  A    between atoms: _474  and  _475
REMARK  198  A    between atoms: _474  and  _477
REMARK  199  A    between atoms: _480  and  _482
REMARK  200  A    between atoms: _482  and  _483
REMARK  201  A    between atoms: _482  and  _485
REMARK  202  A    between atoms: _485  and  _486
REMARK  203  A    between atoms: _489  and  _491
REMARK  204  A    between atoms: _491  and  _492
REMARK  205  A    between atoms: _491  and  _494
REMARK  206  A    between atoms: _494  and  _495
REMARK  207  A    between atoms: _498  and  _500
REMARK  208  A    between atoms: _500  and  _501
REMARK  209  A    between atoms: _500  and  _503
REMARK  210  A    between atoms: _503  and  _504
REMARK  211  A    between atoms: _504  and  _505
REMARK  212  A    between atoms: _505  and  _506
REMARK                            x       y       z     vdW  Elec       q    Type
REMARK                         _______ _______ _______ _____ _____    ______ ____
ROOT
ATOM      1  O   HOH     1      99.668  21.523  25.772  0.00  0.00    +0.000 OA
ENDROOT
TORSDOF 0
REMARK  Name = ../refined-set-2016/4kwo/4kwo_pocket.pdb
REMARK  212 active torsions:
REMARK  status: ('A' for Active; 'I' for Inactive)
REMARK    1  A    between atoms: _1  and  _3
REMARK    2  A    between atoms: _3  and  _4
REMARK    3  A    between atoms: _3  and  _6
REMARK    4  A    between atoms: _6  and  _7
REMARK    5  A    between atoms: _7  and  _8
REMARK    6  A    between atoms: _11  and  _12
REMARK    7  A    between atoms: _17  and  _19
REMARK    8  A    between atoms: _19  and  _20
REMARK    9  A    between atoms: _19  and  _22
REMARK   10  A    between atoms: _25  and  _27
REMARK   11  A    between atoms: _27  and  _28
REMARK   12  A    between atoms: _30  and  _32
REMARK   13  A    between atoms: _32  and  _33
REMARK   14  A    between atoms: _32  and  _35
REMARK   15  A    between atoms: _35  and  _36
REMARK   16  A    between atoms: _39  and  _41
REMARK   17  A    between atoms: _41  and  _42
REMARK   18  A    between atoms: _41  and  _44
REMARK   19  A    between atoms: _44  and  _45
REMARK   20  A    between atoms: _48  and  _50
REMARK   21  A    between atoms: _50  and  _51
REMARK   22  A    between atoms: _53  and  _55
REMARK   23  A    between atoms: _55  and  _56
REMARK   24  A    between atoms: _55  and  _58
REMARK   25  A    between atoms: _58  and  _59
REMARK   26  A    between atoms: _64  and  _66
REMARK   27  A    between atoms: _66  and  _67
REMARK   28  A    between atoms: _66  and  _69
REMARK   29  A    between atoms: _69  and  _70
REMARK   30  A    between atoms: _73  and  _75
REMARK   31  A    between atoms: _75  and  _76
REMARK   32  A    between atoms: _75  and  _78
REMARK   33  A    between atoms: _78  and  _79
REMARK   34  A    between atoms: _84  and  _85
REMARK   35  A    between atoms: _87  and  _89
REMARK   36  A    between atoms: _89  and  _90
REMARK   37  A    between atoms: _89  and  _92
REMARK   38  A    between atoms: _92  and  _93
REMARK   39  A    between atoms: _98  and  _100
REMARK   40  A    between atoms: _100  and  _101
REMARK   41  A    between atoms: _100  and  _103
REMARK   42  A    between atoms: _103  and  _104
REMARK   43  A    between atoms: _107  and  _109
REMARK   44  A    between atoms: _109  and  _110
REMARK   45  A    between atoms: _109  and  _112
REMARK   46  A    between atoms: _112  and  _113
REMARK   47  A    between atoms: _116  and  _118
REMARK   48  A    between atoms: _118  and  _119
REMARK   49  A    between atoms: _118  and  _121
REMARK   50  A    between atoms: _121  and  _122
REMARK   51  A    between atoms: _125  and  _127
REMARK   52  A    between atoms: _127  and  _128
REMARK   53  A    between atoms: _127  and  _130
REMARK   54  A    between atoms: _130  and  _131
REMARK   55  A    between atoms: _133  and  _135
REMARK   56  A    between atoms: _135  and  _136
REMARK   57  A    between atoms: _138  and  _140
REMARK   58  A    between atoms: _140  and  _141
REMARK   59  A    between atoms: _143  and  _145
REMARK   60  A    between atoms: _145  and  _146
REMARK   61  A    between atoms: _145  and  _148
REMARK   62  A    between atoms: _148  and  _149
REMARK   63  A    between atoms: _154  and  _155
REMARK   64  A    between atoms: _157  and  _159
REMARK   65  A    between atoms: _159  and  _160
REMARK   66  A    between atoms: _159  and  _162
REMARK   67  A    between atoms: _162  and  _163
REMARK   68  A    between atoms: _163  and  _164
REMARK   69  A    between atoms: _169  and  _171
REMARK   70  A    between atoms: _171  and  _172
REMARK   71  A    between atoms: _171  and  _174
REMARK   72  A    between atoms: _174  and  _175
REMARK   73  A    between atoms: _178  and  _180
REMARK   74  A    between atoms: _180  and  _181
REMARK   75  A    between atoms: _180  and  _183
REMARK   76  A    between atoms: _183  and  _184
REMARK   77  A    between atoms: _184  and  _185
REMARK   78  A    between atoms: _190  and  _192
REMARK   79  A    between atoms: _192  and  _193
REMARK   80  A    between atoms: _192  and  _195
REMARK   81  A    between atoms: _195  and  _196
REMARK   82  A    between atoms: _199  and  _201
REMARK   83  A    between atoms: _201  and  _202
REMARK   84  A    between atoms: _201  and  _204
REMARK   85  A    between atoms: _204  and  _205
REMARK   86  A    between atoms: _205  and  _206
REMARK   87  A    between atoms: _208  and  _210
REMARK   88  A    between atoms: _210  and  _211
REMARK   89  A    between atoms: _214  and  _216
REMARK   90  A    between atoms: _216  and  _217
REMARK   91  A    between atoms: _216  and  _219
REMARK   92  A    between atoms: _219  and  _220
REMARK   93  A    between atoms: _226  and  _228
REMARK   94  A    between atoms: _228  and  _229
REMARK   95  A    between atoms: _228  and  _231
REMARK   96  A    between atoms: _231  and  _232
REMARK   97  A    between atoms: _235  and  _237
REMARK   98  A    between atoms: _237  and  _238
REMARK   99  A    between atoms: _237  and  _240
REMARK  100  A    between atoms: _240  and  _241
REMARK  101  A    between atoms: _241  and  _242
REMARK  102  A    between atoms: _245  and  _247
REMARK  103  A    between atoms: _247  and  _248
REMARK  104  A    between atoms: _247  and  _250
REMARK  105  A    between atoms: _252  and  _254
REMARK  106  A    between atoms: _254  and  _255
REMARK  107  A    between atoms: _254  and  _257
REMARK  108  A    between atoms: _257  and  _258
REMARK  109  A    between atoms: _261  and  _263
REMARK  110  A    between atoms: _263  and  _264
REMARK  111  A    between atoms: _263  and  _266
REMARK  112  A    between atoms: _266  and  _267
REMARK  113  A    between atoms: _269  and  _271
REMARK  114  A    between atoms: _271  and  _272
REMARK  115  A    between atoms: _271  and  _274
REMARK  116  A    between atoms: _274  and  _275
REMARK  117  A    between atoms: _278  and  _280
REMARK  118  A    between atoms: _280  and  _281
REMARK  119  A    between atoms: _280  and  _283
REMARK  120  A    between atoms: _283  and  _284
REMARK  121  A    between atoms: _284  and  _285
REMARK  122  A    between atoms: _290  and  _292
REMARK  123  A    between atoms: _292  and  _293
REMARK  124  A    between atoms: _292  and  _295
REMARK  125  A    between atoms: _295  and  _296
REMARK  126  A    between atoms: _296  and  _297
REMARK  127  A    between atoms: _302  and  _304
REMARK  128  A    between atoms: _304  and  _305
REMARK  129  A    between atoms: _307  and  _309
REMARK  130  A    between atoms: _309  and  _310
REMARK  131  A    between atoms: _309  and  _312
REMARK  132  A    between atoms: _312  and  _313
REMARK  133  A    between atoms: _315  and  _317
REMARK  134  A    between atoms: _317  and  _318
REMARK  135  A    between atoms: _317  and  _320
REMARK  136  A    between atoms: _320  and  _321
REMARK  137  A    between atoms: _321  and  _322
REMARK  138  A    between atoms: _322  and  _323
REMARK  139  A    between atoms: _332  and  _334
REMARK  140  A    between atoms: _334  and  _335
REMARK  141  A    between atoms: _338  and  _340
REMARK  142  A    between atoms: _340  and  _341
REMARK  143  A    between atoms: _340  and  _343
REMARK  144  A    between atoms: _346  and  _348
REMARK  145  A    between atoms: _348  and  _349
REMARK  146  A    between atoms: _351  and  _353
REMARK  147  A    between atoms: _353  and  _354
REMARK  148  A    between atoms: _356  and  _358
REMARK  149  A    between atoms: _358  and  _359
REMARK  150  A    between atoms: _358  and  _361
REMARK  151  A    between atoms: _361  and  _362
REMARK  152  A    between atoms: _365  and  _367
REMARK  153  A    between atoms: _367  and  _368
REMARK  154  A    between atoms: _371  and  _373
REMARK  155  A    between atoms: _373  and  _374
REMARK  156  A    between atoms: _373  and  _376
REMARK  157  A    between atoms: _379  and  _381
REMARK  158  A    between atoms: _381  and  _382
REMARK  159  A    between atoms: _384  and  _386
REMARK  160  A    between atoms: _386  and  _387
REMARK  161  A    between atoms: _386  and  _389
REMARK  162  A    between atoms: _389  and  _390
REMARK  163  A    between atoms: _390  and  _391
REMARK  164  A    between atoms: _394  and  _396
REMARK  165  A    between atoms: _396  and  _397
REMARK  166  A    between atoms: _396  and  _399
REMARK  167  A    between atoms: _399  and  _400
REMARK  168  A    between atoms: _405  and  _406
REMARK  169  A    between atoms: _408  and  _410
REMARK  170  A    between atoms: _410  and  _411
REMARK  171  A    between atoms: _410  and  _413
REMARK  172  A    between atoms: _413  and  _414
REMARK  173  A    between atoms: _417  and  _419
REMARK  174  A    between atoms: _419  and  _420
REMARK  175  A    between atoms: _419  and  _422
REMARK  176  A    between atoms: _422  and  _423
REMARK  177  A    between atoms: _423  and  _424
REMARK  178  A    between atoms: _426  and  _428
REMARK  179  A    between atoms: _428  and  _429
REMARK  180  A    between atoms: _431  and  _433
REMARK  181  A    between atoms: _433  and  _434
REMARK  182  A    between atoms: _433  and  _436
REMARK  183  A    between atoms: _439  and  _441
REMARK  184  A    between atoms: _441  and  _442
REMARK  185  A    between atoms: _444  and  _446
REMARK  186  A    between atoms: _446  and  _447
REMARK  187  A    between atoms: _446  and  _449
REMARK  188  A    between atoms: _449  and  _450
REMARK  189  A    between atoms: _456  and  _458
REMARK  190  A    between atoms: _458  and  _459
REMARK  191  A    between atoms: _458  and  _461
REMARK  192  A    between atoms: _461  and  _462
REMARK  193  A    between atoms: _465  and  _467
REMARK  194  A    between atoms: _467  and  _468
REMARK  195  A    between atoms: _467  and  _470
REMARK  196  A    between atoms: _472  and  _474
REMARK  197  A    between atoms: _474  and  _475
REMARK  198  A    between atoms: _474  and  _477
REMARK  199  A    between atoms: _480  and  _482
REMARK  200  A    between atoms: _482  and  _483
REMARK  201  A    between atoms: _482  and  _485
REMARK  202  A    between atoms: _485  and  _486
REMARK  203  A    between atoms: _489  and  _491
REMARK  204  A    between atoms: _491  and  _492
REMARK  205  A    between atoms: _491  and  _494
REMARK  206  A    between atoms: _494  and  _495
REMARK  207  A    between atoms: _498  and  _500
REMARK  208  A    between atoms: _500  and  _501
REMARK  209  A    between atoms: _500  and  _503
REMARK  210  A    between atoms: _503  and  _504
REMARK  211  A    between atoms: _504  and  _505
REMARK  212  A    between atoms: _505  and  _506
REMARK                            x       y       z     vdW  Elec       q    Type
REMARK                         _______ _______ _______ _____ _____    ______ ____
ROOT
ATOM      1  O   HOH     1      97.937  21.501  28.009  0.00  0.00    +0.000 OA
ENDROOT
TORSDOF 0
REMARK  Name = ../refined-set-2016/4kwo/4kwo_pocket.pdb
REMARK  212 active torsions:
REMARK  status: ('A' for Active; 'I' for Inactive)
REMARK    1  A    between atoms: _1  and  _3
REMARK    2  A    between atoms: _3  and  _4
REMARK    3  A    between atoms: _3  and  _6
REMARK    4  A    between atoms: _6  and  _7
REMARK    5  A    between atoms: _7  and  _8
REMARK    6  A    between atoms: _11  and  _12
REMARK    7  A    between atoms: _17  and  _19
REMARK    8  A    between atoms: _19  and  _20
REMARK    9  A    between atoms: _19  and  _22
REMARK   10  A    between atoms: _25  and  _27
REMARK   11  A    between atoms: _27  and  _28
REMARK   12  A    between atoms: _30  and  _32
REMARK   13  A    between atoms: _32  and  _33
REMARK   14  A    between atoms: _32  and  _35
REMARK   15  A    between atoms: _35  and  _36
REMARK   16  A    between atoms: _39  and  _41
REMARK   17  A    between atoms: _41  and  _42
REMARK   18  A    between atoms: _41  and  _44
REMARK   19  A    between atoms: _44  and  _45
REMARK   20  A    between atoms: _48  and  _50
REMARK   21  A    between atoms: _50  and  _51
REMARK   22  A    between atoms: _53  and  _55
REMARK   23  A    between atoms: _55  and  _56
REMARK   24  A    between atoms: _55  and  _58
REMARK   25  A    between atoms: _58  and  _59
REMARK   26  A    between atoms: _64  and  _66
REMARK   27  A    between atoms: _66  and  _67
REMARK   28  A    between atoms: _66  and  _69
REMARK   29  A    between atoms: _69  and  _70
REMARK   30  A    between atoms: _73  and  _75
REMARK   31  A    between atoms: _75  and  _76
REMARK   32  A    between atoms: _75  and  _78
REMARK   33  A    between atoms: _78  and  _79
REMARK   34  A    between atoms: _84  and  _85
REMARK   35  A    between atoms: _87  and  _89
REMARK   36  A    between atoms: _89  and  _90
REMARK   37  A    between atoms: _89  and  _92
REMARK   38  A    between atoms: _92  and  _93
REMARK   39  A    between atoms: _98  and  _100
REMARK   40  A    between atoms: _100  and  _101
REMARK   41  A    between atoms: _100  and  _103
REMARK   42  A    between atoms: _103  and  _104
REMARK   43  A    between atoms: _107  and  _109
REMARK   44  A    between atoms: _109  and  _110
REMARK   45  A    between atoms: _109  and  _112
REMARK   46  A    between atoms: _112  and  _113
REMARK   47  A    between atoms: _116  and  _118
REMARK   48  A    between atoms: _118  and  _119
REMARK   49  A    between atoms: _118  and  _121
REMARK   50  A    between atoms: _121  and  _122
REMARK   51  A    between atoms: _125  and  _127
REMARK   52  A    between atoms: _127  and  _128
REMARK   53  A    between atoms: _127  and  _130
REMARK   54  A    between atoms: _130  and  _131
REMARK   55  A    between atoms: _133  and  _135
REMARK   56  A    between atoms: _135  and  _136
REMARK   57  A    between atoms: _138  and  _140
REMARK   58  A    between atoms: _140  and  _141
REMARK   59  A    between atoms: _143  and  _145
REMARK   60  A    between atoms: _145  and  _146
REMARK   61  A    between atoms: _145  and  _148
REMARK   62  A    between atoms: _148  and  _149
REMARK   63  A    between atoms: _154  and  _155
REMARK   64  A    between atoms: _157  and  _159
REMARK   65  A    between atoms: _159  and  _160
REMARK   66  A    between atoms: _159  and  _162
REMARK   67  A    between atoms: _162  and  _163
REMARK   68  A    between atoms: _163  and  _164
REMARK   69  A    between atoms: _169  and  _171
REMARK   70  A    between atoms: _171  and  _172
REMARK   71  A    between atoms: _171  and  _174
REMARK   72  A    between atoms: _174  and  _175
REMARK   73  A    between atoms: _178  and  _180
REMARK   74  A    between atoms: _180  and  _181
REMARK   75  A    between atoms: _180  and  _183
REMARK   76  A    between atoms: _183  and  _184
REMARK   77  A    between atoms: _184  and  _185
REMARK   78  A    between atoms: _190  and  _192
REMARK   79  A    between atoms: _192  and  _193
REMARK   80  A    between atoms: _192  and  _195
REMARK   81  A    between atoms: _195  and  _196
REMARK   82  A    between atoms: _199  and  _201
REMARK   83  A    between atoms: _201  and  _202
REMARK   84  A    between atoms: _201  and  _204
REMARK   85  A    between atoms: _204  and  _205
REMARK   86  A    between atoms: _205  and  _206
REMARK   87  A    between atoms: _208  and  _210
REMARK   88  A    between atoms: _210  and  _211
REMARK   89  A    between atoms: _214  and  _216
REMARK   90  A    between atoms: _216  and  _217
REMARK   91  A    between atoms: _216  and  _219
REMARK   92  A    between atoms: _219  and  _220
REMARK   93  A    between atoms: _226  and  _228
REMARK   94  A    between atoms: _228  and  _229
REMARK   95  A    between atoms: _228  and  _231
REMARK   96  A    between atoms: _231  and  _232
REMARK   97  A    between atoms: _235  and  _237
REMARK   98  A    between atoms: _237  and  _238
REMARK   99  A    between atoms: _237  and  _240
REMARK  100  A    between atoms: _240  and  _241
REMARK  101  A    between atoms: _241  and  _242
REMARK  102  A    between atoms: _245  and  _247
REMARK  103  A    between atoms: _247  and  _248
REMARK  104  A    between atoms: _247  and  _250
REMARK  105  A    between atoms: _252  and  _254
REMARK  106  A    between atoms: _254  and  _255
REMARK  107  A    between atoms: _254  and  _257
REMARK  108  A    between atoms: _257  and  _258
REMARK  109  A    between atoms: _261  and  _263
REMARK  110  A    between atoms: _263  and  _264
REMARK  111  A    between atoms: _263  and  _266
REMARK  112  A    between atoms: _266  and  _267
REMARK  113  A    between atoms: _269  and  _271
REMARK  114  A    between atoms: _271  and  _272
REMARK  115  A    between atoms: _271  and  _274
REMARK  116  A    between atoms: _274  and  _275
REMARK  117  A    between atoms: _278  and  _280
REMARK  118  A    between atoms: _280  and  _281
REMARK  119  A    between atoms: _280  and  _283
REMARK  120  A    between atoms: _283  and  _284
REMARK  121  A    between atoms: _284  and  _285
REMARK  122  A    between atoms: _290  and  _292
REMARK  123  A    between atoms: _292  and  _293
REMARK  124  A    between atoms: _292  and  _295
REMARK  125  A    between atoms: _295  and  _296
REMARK  126  A    between atoms: _296  and  _297
REMARK  127  A    between atoms: _302  and  _304
REMARK  128  A    between atoms: _304  and  _305
REMARK  129  A    between atoms: _307  and  _309
REMARK  130  A    between atoms: _309  and  _310
REMARK  131  A    between atoms: _309  and  _312
REMARK  132  A    between atoms: _312  and  _313
REMARK  133  A    between atoms: _315  and  _317
REMARK  134  A    between atoms: _317  and  _318
REMARK  135  A    between atoms: _317  and  _320
REMARK  136  A    between atoms: _320  and  _321
REMARK  137  A    between atoms: _321  and  _322
REMARK  138  A    between atoms: _322  and  _323
REMARK  139  A    between atoms: _332  and  _334
REMARK  140  A    between atoms: _334  and  _335
REMARK  141  A    between atoms: _338  and  _340
REMARK  142  A    between atoms: _340  and  _341
REMARK  143  A    between atoms: _340  and  _343
REMARK  144  A    between atoms: _346  and  _348
REMARK  145  A    between atoms: _348  and  _349
REMARK  146  A    between atoms: _351  and  _353
REMARK  147  A    between atoms: _353  and  _354
REMARK  148  A    between atoms: _356  and  _358
REMARK  149  A    between atoms: _358  and  _359
REMARK  150  A    between atoms: _358  and  _361
REMARK  151  A    between atoms: _361  and  _362
REMARK  152  A    between atoms: _365  and  _367
REMARK  153  A    between atoms: _367  and  _368
REMARK  154  A    between atoms: _371  and  _373
REMARK  155  A    between atoms: _373  and  _374
REMARK  156  A    between atoms: _373  and  _376
REMARK  157  A    between atoms: _379  and  _381
REMARK  158  A    between atoms: _381  and  _382
REMARK  159  A    between atoms: _384  and  _386
REMARK  160  A    between atoms: _386  and  _387
REMARK  161  A    between atoms: _386  and  _389
REMARK  162  A    between atoms: _389  and  _390
REMARK  163  A    between atoms: _390  and  _391
REMARK  164  A    between atoms: _394  and  _396
REMARK  165  A    between atoms: _396  and  _397
REMARK  166  A    between atoms: _396  and  _399
REMARK  167  A    between atoms: _399  and  _400
REMARK  168  A    between atoms: _405  and  _406
REMARK  169  A    between atoms: _408  and  _410
REMARK  170  A    between atoms: _410  and  _411
REMARK  171  A    between atoms: _410  and  _413
REMARK  172  A    between atoms: _413  and  _414
REMARK  173  A    between atoms: _417  and  _419
REMARK  174  A    between atoms: _419  and  _420
REMARK  175  A    between atoms: _419  and  _422
REMARK  176  A    between atoms: _422  and  _423
REMARK  177  A    between atoms: _423  and  _424
REMARK  178  A    between atoms: _426  and  _428
REMARK  179  A    between atoms: _428  and  _429
REMARK  180  A    between atoms: _431  and  _433
REMARK  181  A    between atoms: _433  and  _434
REMARK  182  A    between atoms: _433  and  _436
REMARK  183  A    between atoms: _439  and  _441
REMARK  184  A    between atoms: _441  and  _442
REMARK  185  A    between atoms: _444  and  _446
REMARK  186  A    between atoms: _446  and  _447
REMARK  187  A    between atoms: _446  and  _449
REMARK  188  A    between atoms: _449  and  _450
REMARK  189  A    between atoms: _456  and  _458
REMARK  190  A    between atoms: _458  and  _459
REMARK  191  A    between atoms: _458  and  _461
REMARK  192  A    between atoms: _461  and  _462
REMARK  193  A    between atoms: _465  and  _467
REMARK  194  A    between atoms: _467  and  _468
REMARK  195  A    between atoms: _467  and  _470
REMARK  196  A    between atoms: _472  and  _474
REMARK  197  A    between atoms: _474  and  _475
REMARK  198  A    between atoms: _474  and  _477
REMARK  199  A    between atoms: _480  and  _482
REMARK  200  A    between atoms: _482  and  _483
REMARK  201  A    between atoms: _482  and  _485
REMARK  202  A    between atoms: _485  and  _486
REMARK  203  A    between atoms: _489  and  _491
REMARK  204  A    between atoms: _491  and  _492
REMARK  205  A    between atoms: _491  and  _494
REMARK  206  A    between atoms: _494  and  _495
REMARK  207  A    between atoms: _498  and  _500
REMARK  208  A    between atoms: _500  and  _501
REMARK  209  A    between atoms: _500  and  _503
REMARK  210  A    between atoms: _503  and  _504
REMARK  211  A    between atoms: _504  and  _505
REMARK  212  A    between atoms: _505  and  _506
REMARK                            x       y       z     vdW  Elec       q    Type
REMARK                         _______ _______ _______ _____ _____    ______ ____
ROOT
ATOM      1  O   HOH     1      97.040  17.536  27.219  0.00  0.00    +0.000 OA
ENDROOT
TORSDOF 0
REMARK  Name = ../refined-set-2016/4kwo/4kwo_pocket.pdb
REMARK  212 active torsions:
REMARK  status: ('A' for Active; 'I' for Inactive)
REMARK    1  A    between atoms: _1  and  _3
REMARK    2  A    between atoms: _3  and  _4
REMARK    3  A    between atoms: _3  and  _6
REMARK    4  A    between atoms: _6  and  _7
REMARK    5  A    between atoms: _7  and  _8
REMARK    6  A    between atoms: _11  and  _12
REMARK    7  A    between atoms: _17  and  _19
REMARK    8  A    between atoms: _19  and  _20
REMARK    9  A    between atoms: _19  and  _22
REMARK   10  A    between atoms: _25  and  _27
REMARK   11  A    between atoms: _27  and  _28
REMARK   12  A    between atoms: _30  and  _32
REMARK   13  A    between atoms: _32  and  _33
REMARK   14  A    between atoms: _32  and  _35
REMARK   15  A    between atoms: _35  and  _36
REMARK   16  A    between atoms: _39  and  _41
REMARK   17  A    between atoms: _41  and  _42
REMARK   18  A    between atoms: _41  and  _44
REMARK   19  A    between atoms: _44  and  _45
REMARK   20  A    between atoms: _48  and  _50
REMARK   21  A    between atoms: _50  and  _51
REMARK   22  A    between atoms: _53  and  _55
REMARK   23  A    between atoms: _55  and  _56
REMARK   24  A    between atoms: _55  and  _58
REMARK   25  A    between atoms: _58  and  _59
REMARK   26  A    between atoms: _64  and  _66
REMARK   27  A    between atoms: _66  and  _67
REMARK   28  A    between atoms: _66  and  _69
REMARK   29  A    between atoms: _69  and  _70
REMARK   30  A    between atoms: _73  and  _75
REMARK   31  A    between atoms: _75  and  _76
REMARK   32  A    between atoms: _75  and  _78
REMARK   33  A    between atoms: _78  and  _79
REMARK   34  A    between atoms: _84  and  _85
REMARK   35  A    between atoms: _87  and  _89
REMARK   36  A    between atoms: _89  and  _90
REMARK   37  A    between atoms: _89  and  _92
REMARK   38  A    between atoms: _92  and  _93
REMARK   39  A    between atoms: _98  and  _100
REMARK   40  A    between atoms: _100  and  _101
REMARK   41  A    between atoms: _100  and  _103
REMARK   42  A    between atoms: _103  and  _104
REMARK   43  A    between atoms: _107  and  _109
REMARK   44  A    between atoms: _109  and  _110
REMARK   45  A    between atoms: _109  and  _112
REMARK   46  A    between atoms: _112  and  _113
REMARK   47  A    between atoms: _116  and  _118
REMARK   48  A    between atoms: _118  and  _119
REMARK   49  A    between atoms: _118  and  _121
REMARK   50  A    between atoms: _121  and  _122
REMARK   51  A    between atoms: _125  and  _127
REMARK   52  A    between atoms: _127  and  _128
REMARK   53  A    between atoms: _127  and  _130
REMARK   54  A    between atoms: _130  and  _131
REMARK   55  A    between atoms: _133  and  _135
REMARK   56  A    between atoms: _135  and  _136
REMARK   57  A    between atoms: _138  and  _140
REMARK   58  A    between atoms: _140  and  _141
REMARK   59  A    between atoms: _143  and  _145
REMARK   60  A    between atoms: _145  and  _146
REMARK   61  A    between atoms: _145  and  _148
REMARK   62  A    between atoms: _148  and  _149
REMARK   63  A    between atoms: _154  and  _155
REMARK   64  A    between atoms: _157  and  _159
REMARK   65  A    between atoms: _159  and  _160
REMARK   66  A    between atoms: _159  and  _162
REMARK   67  A    between atoms: _162  and  _163
REMARK   68  A    between atoms: _163  and  _164
REMARK   69  A    between atoms: _169  and  _171
REMARK   70  A    between atoms: _171  and  _172
REMARK   71  A    between atoms: _171  and  _174
REMARK   72  A    between atoms: _174  and  _175
REMARK   73  A    between atoms: _178  and  _180
REMARK   74  A    between atoms: _180  and  _181
REMARK   75  A    between atoms: _180  and  _183
REMARK   76  A    between atoms: _183  and  _184
REMARK   77  A    between atoms: _184  and  _185
REMARK   78  A    between atoms: _190  and  _192
REMARK   79  A    between atoms: _192  and  _193
REMARK   80  A    between atoms: _192  and  _195
REMARK   81  A    between atoms: _195  and  _196
REMARK   82  A    between atoms: _199  and  _201
REMARK   83  A    between atoms: _201  and  _202
REMARK   84  A    between atoms: _201  and  _204
REMARK   85  A    between atoms: _204  and  _205
REMARK   86  A    between atoms: _205  and  _206
REMARK   87  A    between atoms: _208  and  _210
REMARK   88  A    between atoms: _210  and  _211
REMARK   89  A    between atoms: _214  and  _216
REMARK   90  A    between atoms: _216  and  _217
REMARK   91  A    between atoms: _216  and  _219
REMARK   92  A    between atoms: _219  and  _220
REMARK   93  A    between atoms: _226  and  _228
REMARK   94  A    between atoms: _228  and  _229
REMARK   95  A    between atoms: _228  and  _231
REMARK   96  A    between atoms: _231  and  _232
REMARK   97  A    between atoms: _235  and  _237
REMARK   98  A    between atoms: _237  and  _238
REMARK   99  A    between atoms: _237  and  _240
REMARK  100  A    between atoms: _240  and  _241
REMARK  101  A    between atoms: _241  and  _242
REMARK  102  A    between atoms: _245  and  _247
REMARK  103  A    between atoms: _247  and  _248
REMARK  104  A    between atoms: _247  and  _250
REMARK  105  A    between atoms: _252  and  _254
REMARK  106  A    between atoms: _254  and  _255
REMARK  107  A    between atoms: _254  and  _257
REMARK  108  A    between atoms: _257  and  _258
REMARK  109  A    between atoms: _261  and  _263
REMARK  110  A    between atoms: _263  and  _264
REMARK  111  A    between atoms: _263  and  _266
REMARK  112  A    between atoms: _266  and  _267
REMARK  113  A    between atoms: _269  and  _271
REMARK  114  A    between atoms: _271  and  _272
REMARK  115  A    between atoms: _271  and  _274
REMARK  116  A    between atoms: _274  and  _275
REMARK  117  A    between atoms: _278  and  _280
REMARK  118  A    between atoms: _280  and  _281
REMARK  119  A    between atoms: _280  and  _283
REMARK  120  A    between atoms: _283  and  _284
REMARK  121  A    between atoms: _284  and  _285
REMARK  122  A    between atoms: _290  and  _292
REMARK  123  A    between atoms: _292  and  _293
REMARK  124  A    between atoms: _292  and  _295
REMARK  125  A    between atoms: _295  and  _296
REMARK  126  A    between atoms: _296  and  _297
REMARK  127  A    between atoms: _302  and  _304
REMARK  128  A    between atoms: _304  and  _305
REMARK  129  A    between atoms: _307  and  _309
REMARK  130  A    between atoms: _309  and  _310
REMARK  131  A    between atoms: _309  and  _312
REMARK  132  A    between atoms: _312  and  _313
REMARK  133  A    between atoms: _315  and  _317
REMARK  134  A    between atoms: _317  and  _318
REMARK  135  A    between atoms: _317  and  _320
REMARK  136  A    between atoms: _320  and  _321
REMARK  137  A    between atoms: _321  and  _322
REMARK  138  A    between atoms: _322  and  _323
REMARK  139  A    between atoms: _332  and  _334
REMARK  140  A    between atoms: _334  and  _335
REMARK  141  A    between atoms: _338  and  _340
REMARK  142  A    between atoms: _340  and  _341
REMARK  143  A    between atoms: _340  and  _343
REMARK  144  A    between atoms: _346  and  _348
REMARK  145  A    between atoms: _348  and  _349
REMARK  146  A    between atoms: _351  and  _353
REMARK  147  A    between atoms: _353  and  _354
REMARK  148  A    between atoms: _356  and  _358
REMARK  149  A    between atoms: _358  and  _359
REMARK  150  A    between atoms: _358  and  _361
REMARK  151  A    between atoms: _361  and  _362
REMARK  152  A    between atoms: _365  and  _367
REMARK  153  A    between atoms: _367  and  _368
REMARK  154  A    between atoms: _371  and  _373
REMARK  155  A    between atoms: _373  and  _374
REMARK  156  A    between atoms: _373  and  _376
REMARK  157  A    between atoms: _379  and  _381
REMARK  158  A    between atoms: _381  and  _382
REMARK  159  A    between atoms: _384  and  _386
REMARK  160  A    between atoms: _386  and  _387
REMARK  161  A    between atoms: _386  and  _389
REMARK  162  A    between atoms: _389  and  _390
REMARK  163  A    between atoms: _390  and  _391
REMARK  164  A    between atoms: _394  and  _396
REMARK  165  A    between atoms: _396  and  _397
REMARK  166  A    between atoms: _396  and  _399
REMARK  167  A    between atoms: _399  and  _400
REMARK  168  A    between atoms: _405  and  _406
REMARK  169  A    between atoms: _408  and  _410
REMARK  170  A    between atoms: _410  and  _411
REMARK  171  A    between atoms: _410  and  _413
REMARK  172  A    between atoms: _413  and  _414
REMARK  173  A    between atoms: _417  and  _419
REMARK  174  A    between atoms: _419  and  _420
REMARK  175  A    between atoms: _419  and  _422
REMARK  176  A    between atoms: _422  and  _423
REMARK  177  A    between atoms: _423  and  _424
REMARK  178  A    between atoms: _426  and  _428
REMARK  179  A    between atoms: _428  and  _429
REMARK  180  A    between atoms: _431  and  _433
REMARK  181  A    between atoms: _433  and  _434
REMARK  182  A    between atoms: _433  and  _436
REMARK  183  A    between atoms: _439  and  _441
REMARK  184  A    between atoms: _441  and  _442
REMARK  185  A    between atoms: _444  and  _446
REMARK  186  A    between atoms: _446  and  _447
REMARK  187  A    between atoms: _446  and  _449
REMARK  188  A    between atoms: _449  and  _450
REMARK  189  A    between atoms: _456  and  _458
REMARK  190  A    between atoms: _458  and  _459
REMARK  191  A    between atoms: _458  and  _461
REMARK  192  A    between atoms: _461  and  _462
REMARK  193  A    between atoms: _465  and  _467
REMARK  194  A    between atoms: _467  and  _468
REMARK  195  A    between atoms: _467  and  _470
REMARK  196  A    between atoms: _472  and  _474
REMARK  197  A    between atoms: _474  and  _475
REMARK  198  A    between atoms: _474  and  _477
REMARK  199  A    between atoms: _480  and  _482
REMARK  200  A    between atoms: _482  and  _483
REMARK  201  A    between atoms: _482  and  _485
REMARK  202  A    between atoms: _485  and  _486
REMARK  203  A    between atoms: _489  and  _491
REMARK  204  A    between atoms: _491  and  _492
REMARK  205  A    between atoms: _491  and  _494
REMARK  206  A    between atoms: _494  and  _495
REMARK  207  A    between atoms: _498  and  _500
REMARK  208  A    between atoms: _500  and  _501
REMARK  209  A    between atoms: _500  and  _503
REMARK  210  A    between atoms: _503  and  _504
REMARK  211  A    between atoms: _504  and  _505
REMARK  212  A    between atoms: _505  and  _506
REMARK                            x       y       z     vdW  Elec       q    Type
REMARK                         _______ _______ _______ _____ _____    ______ ____
ROOT
ATOM      1  O   HOH     1     108.920  20.047  13.768  0.00  0.00    +0.000 OA
ENDROOT
TORSDOF 0
REMARK  Name = ../refined-set-2016/4kwo/4kwo_pocket.pdb
REMARK  212 active torsions:
REMARK  status: ('A' for Active; 'I' for Inactive)
REMARK    1  A    between atoms: _1  and  _3
REMARK    2  A    between atoms: _3  and  _4
REMARK    3  A    between atoms: _3  and  _6
REMARK    4  A    between atoms: _6  and  _7
REMARK    5  A    between atoms: _7  and  _8
REMARK    6  A    between atoms: _11  and  _12
REMARK    7  A    between atoms: _17  and  _19
REMARK    8  A    between atoms: _19  and  _20
REMARK    9  A    between atoms: _19  and  _22
REMARK   10  A    between atoms: _25  and  _27
REMARK   11  A    between atoms: _27  and  _28
REMARK   12  A    between atoms: _30  and  _32
REMARK   13  A    between atoms: _32  and  _33
REMARK   14  A    between atoms: _32  and  _35
REMARK   15  A    between atoms: _35  and  _36
REMARK   16  A    between atoms: _39  and  _41
REMARK   17  A    between atoms: _41  and  _42
REMARK   18  A    between atoms: _41  and  _44
REMARK   19  A    between atoms: _44  and  _45
REMARK   20  A    between atoms: _48  and  _50
REMARK   21  A    between atoms: _50  and  _51
REMARK   22  A    between atoms: _53  and  _55
REMARK   23  A    between atoms: _55  and  _56
REMARK   24  A    between atoms: _55  and  _58
REMARK   25  A    between atoms: _58  and  _59
REMARK   26  A    between atoms: _64  and  _66
REMARK   27  A    between atoms: _66  and  _67
REMARK   28  A    between atoms: _66  and  _69
REMARK   29  A    between atoms: _69  and  _70
REMARK   30  A    between atoms: _73  and  _75
REMARK   31  A    between atoms: _75  and  _76
REMARK   32  A    between atoms: _75  and  _78
REMARK   33  A    between atoms: _78  and  _79
REMARK   34  A    between atoms: _84  and  _85
REMARK   35  A    between atoms: _87  and  _89
REMARK   36  A    between atoms: _89  and  _90
REMARK   37  A    between atoms: _89  and  _92
REMARK   38  A    between atoms: _92  and  _93
REMARK   39  A    between atoms: _98  and  _100
REMARK   40  A    between atoms: _100  and  _101
REMARK   41  A    between atoms: _100  and  _103
REMARK   42  A    between atoms: _103  and  _104
REMARK   43  A    between atoms: _107  and  _109
REMARK   44  A    between atoms: _109  and  _110
REMARK   45  A    between atoms: _109  and  _112
REMARK   46  A    between atoms: _112  and  _113
REMARK   47  A    between atoms: _116  and  _118
REMARK   48  A    between atoms: _118  and  _119
REMARK   49  A    between atoms: _118  and  _121
REMARK   50  A    between atoms: _121  and  _122
REMARK   51  A    between atoms: _125  and  _127
REMARK   52  A    between atoms: _127  and  _128
REMARK   53  A    between atoms: _127  and  _130
REMARK   54  A    between atoms: _130  and  _131
REMARK   55  A    between atoms: _133  and  _135
REMARK   56  A    between atoms: _135  and  _136
REMARK   57  A    between atoms: _138  and  _140
REMARK   58  A    between atoms: _140  and  _141
REMARK   59  A    between atoms: _143  and  _145
REMARK   60  A    between atoms: _145  and  _146
REMARK   61  A    between atoms: _145  and  _148
REMARK   62  A    between atoms: _148  and  _149
REMARK   63  A    between atoms: _154  and  _155
REMARK   64  A    between atoms: _157  and  _159
REMARK   65  A    between atoms: _159  and  _160
REMARK   66  A    between atoms: _159  and  _162
REMARK   67  A    between atoms: _162  and  _163
REMARK   68  A    between atoms: _163  and  _164
REMARK   69  A    between atoms: _169  and  _171
REMARK   70  A    between atoms: _171  and  _172
REMARK   71  A    between atoms: _171  and  _174
REMARK   72  A    between atoms: _174  and  _175
REMARK   73  A    between atoms: _178  and  _180
REMARK   74  A    between atoms: _180  and  _181
REMARK   75  A    between atoms: _180  and  _183
REMARK   76  A    between atoms: _183  and  _184
REMARK   77  A    between atoms: _184  and  _185
REMARK   78  A    between atoms: _190  and  _192
REMARK   79  A    between atoms: _192  and  _193
REMARK   80  A    between atoms: _192  and  _195
REMARK   81  A    between atoms: _195  and  _196
REMARK   82  A    between atoms: _199  and  _201
REMARK   83  A    between atoms: _201  and  _202
REMARK   84  A    between atoms: _201  and  _204
REMARK   85  A    between atoms: _204  and  _205
REMARK   86  A    between atoms: _205  and  _206
REMARK   87  A    between atoms: _208  and  _210
REMARK   88  A    between atoms: _210  and  _211
REMARK   89  A    between atoms: _214  and  _216
REMARK   90  A    between atoms: _216  and  _217
REMARK   91  A    between atoms: _216  and  _219
REMARK   92  A    between atoms: _219  and  _220
REMARK   93  A    between atoms: _226  and  _228
REMARK   94  A    between atoms: _228  and  _229
REMARK   95  A    between atoms: _228  and  _231
REMARK   96  A    between atoms: _231  and  _232
REMARK   97  A    between atoms: _235  and  _237
REMARK   98  A    between atoms: _237  and  _238
REMARK   99  A    between atoms: _237  and  _240
REMARK  100  A    between atoms: _240  and  _241
REMARK  101  A    between atoms: _241  and  _242
REMARK  102  A    between atoms: _245  and  _247
REMARK  103  A    between atoms: _247  and  _248
REMARK  104  A    between atoms: _247  and  _250
REMARK  105  A    between atoms: _252  and  _254
REMARK  106  A    between atoms: _254  and  _255
REMARK  107  A    between atoms: _254  and  _257
REMARK  108  A    between atoms: _257  and  _258
REMARK  109  A    between atoms: _261  and  _263
REMARK  110  A    between atoms: _263  and  _264
REMARK  111  A    between atoms: _263  and  _266
REMARK  112  A    between atoms: _266  and  _267
REMARK  113  A    between atoms: _269  and  _271
REMARK  114  A    between atoms: _271  and  _272
REMARK  115  A    between atoms: _271  and  _274
REMARK  116  A    between atoms: _274  and  _275
REMARK  117  A    between atoms: _278  and  _280
REMARK  118  A    between atoms: _280  and  _281
REMARK  119  A    between atoms: _280  and  _283
REMARK  120  A    between atoms: _283  and  _284
REMARK  121  A    between atoms: _284  and  _285
REMARK  122  A    between atoms: _290  and  _292
REMARK  123  A    between atoms: _292  and  _293
REMARK  124  A    between atoms: _292  and  _295
REMARK  125  A    between atoms: _295  and  _296
REMARK  126  A    between atoms: _296  and  _297
REMARK  127  A    between atoms: _302  and  _304
REMARK  128  A    between atoms: _304  and  _305
REMARK  129  A    between atoms: _307  and  _309
REMARK  130  A    between atoms: _309  and  _310
REMARK  131  A    between atoms: _309  and  _312
REMARK  132  A    between atoms: _312  and  _313
REMARK  133  A    between atoms: _315  and  _317
REMARK  134  A    between atoms: _317  and  _318
REMARK  135  A    between atoms: _317  and  _320
REMARK  136  A    between atoms: _320  and  _321
REMARK  137  A    between atoms: _321  and  _322
REMARK  138  A    between atoms: _322  and  _323
REMARK  139  A    between atoms: _332  and  _334
REMARK  140  A    between atoms: _334  and  _335
REMARK  141  A    between atoms: _338  and  _340
REMARK  142  A    between atoms: _340  and  _341
REMARK  143  A    between atoms: _340  and  _343
REMARK  144  A    between atoms: _346  and  _348
REMARK  145  A    between atoms: _348  and  _349
REMARK  146  A    between atoms: _351  and  _353
REMARK  147  A    between atoms: _353  and  _354
REMARK  148  A    between atoms: _356  and  _358
REMARK  149  A    between atoms: _358  and  _359
REMARK  150  A    between atoms: _358  and  _361
REMARK  151  A    between atoms: _361  and  _362
REMARK  152  A    between atoms: _365  and  _367
REMARK  153  A    between atoms: _367  and  _368
REMARK  154  A    between atoms: _371  and  _373
REMARK  155  A    between atoms: _373  and  _374
REMARK  156  A    between atoms: _373  and  _376
REMARK  157  A    between atoms: _379  and  _381
REMARK  158  A    between atoms: _381  and  _382
REMARK  159  A    between atoms: _384  and  _386
REMARK  160  A    between atoms: _386  and  _387
REMARK  161  A    between atoms: _386  and  _389
REMARK  162  A    between atoms: _389  and  _390
REMARK  163  A    between atoms: _390  and  _391
REMARK  164  A    between atoms: _394  and  _396
REMARK  165  A    between atoms: _396  and  _397
REMARK  166  A    between atoms: _396  and  _399
REMARK  167  A    between atoms: _399  and  _400
REMARK  168  A    between atoms: _405  and  _406
REMARK  169  A    between atoms: _408  and  _410
REMARK  170  A    between atoms: _410  and  _411
REMARK  171  A    between atoms: _410  and  _413
REMARK  172  A    between atoms: _413  and  _414
REMARK  173  A    between atoms: _417  and  _419
REMARK  174  A    between atoms: _419  and  _420
REMARK  175  A    between atoms: _419  and  _422
REMARK  176  A    between atoms: _422  and  _423
REMARK  177  A    between atoms: _423  and  _424
REMARK  178  A    between atoms: _426  and  _428
REMARK  179  A    between atoms: _428  and  _429
REMARK  180  A    between atoms: _431  and  _433
REMARK  181  A    between atoms: _433  and  _434
REMARK  182  A    between atoms: _433  and  _436
REMARK  183  A    between atoms: _439  and  _441
REMARK  184  A    between atoms: _441  and  _442
REMARK  185  A    between atoms: _444  and  _446
REMARK  186  A    between atoms: _446  and  _447
REMARK  187  A    between atoms: _446  and  _449
REMARK  188  A    between atoms: _449  and  _450
REMARK  189  A    between atoms: _456  and  _458
REMARK  190  A    between atoms: _458  and  _459
REMARK  191  A    between atoms: _458  and  _461
REMARK  192  A    between atoms: _461  and  _462
REMARK  193  A    between atoms: _465  and  _467
REMARK  194  A    between atoms: _467  and  _468
REMARK  195  A    between atoms: _467  and  _470
REMARK  196  A    between atoms: _472  and  _474
REMARK  197  A    between atoms: _474  and  _475
REMARK  198  A    between atoms: _474  and  _477
REMARK  199  A    between atoms: _480  and  _482
REMARK  200  A    between atoms: _482  and  _483
REMARK  201  A    between atoms: _482  and  _485
REMARK  202  A    between atoms: _485  and  _486
REMARK  203  A    between atoms: _489  and  _491
REMARK  204  A    between atoms: _491  and  _492
REMARK  205  A    between atoms: _491  and  _494
REMARK  206  A    between atoms: _494  and  _495
REMARK  207  A    between atoms: _498  and  _500
REMARK  208  A    between atoms: _500  and  _501
REMARK  209  A    between atoms: _500  and  _503
REMARK  210  A    between atoms: _503  and  _504
REMARK  211  A    between atoms: _504  and  _505
REMARK  212  A    between atoms: _505  and  _506
REMARK                            x       y       z     vdW  Elec       q    Type
REMARK                         _______ _______ _______ _____ _____    ______ ____
ROOT
ATOM      1  O   HOH     1      97.266  11.917  14.178  0.00  0.00    +0.000 OA
ENDROOT
TORSDOF 0
REMARK  Name = ../refined-set-2016/4kwo/4kwo_pocket.pdb
REMARK  212 active torsions:
REMARK  status: ('A' for Active; 'I' for Inactive)
REMARK    1  A    between atoms: _1  and  _3
REMARK    2  A    between atoms: _3  and  _4
REMARK    3  A    between atoms: _3  and  _6
REMARK    4  A    between atoms: _6  and  _7
REMARK    5  A    between atoms: _7  and  _8
REMARK    6  A    between atoms: _11  and  _12
REMARK    7  A    between atoms: _17  and  _19
REMARK    8  A    between atoms: _19  and  _20
REMARK    9  A    between atoms: _19  and  _22
REMARK   10  A    between atoms: _25  and  _27
REMARK   11  A    between atoms: _27  and  _28
REMARK   12  A    between atoms: _30  and  _32
REMARK   13  A    between atoms: _32  and  _33
REMARK   14  A    between atoms: _32  and  _35
REMARK   15  A    between atoms: _35  and  _36
REMARK   16  A    between atoms: _39  and  _41
REMARK   17  A    between atoms: _41  and  _42
REMARK   18  A    between atoms: _41  and  _44
REMARK   19  A    between atoms: _44  and  _45
REMARK   20  A    between atoms: _48  and  _50
REMARK   21  A    between atoms: _50  and  _51
REMARK   22  A    between atoms: _53  and  _55
REMARK   23  A    between atoms: _55  and  _56
REMARK   24  A    between atoms: _55  and  _58
REMARK   25  A    between atoms: _58  and  _59
REMARK   26  A    between atoms: _64  and  _66
REMARK   27  A    between atoms: _66  and  _67
REMARK   28  A    between atoms: _66  and  _69
REMARK   29  A    between atoms: _69  and  _70
REMARK   30  A    between atoms: _73  and  _75
REMARK   31  A    between atoms: _75  and  _76
REMARK   32  A    between atoms: _75  and  _78
REMARK   33  A    between atoms: _78  and  _79
REMARK   34  A    between atoms: _84  and  _85
REMARK   35  A    between atoms: _87  and  _89
REMARK   36  A    between atoms: _89  and  _90
REMARK   37  A    between atoms: _89  and  _92
REMARK   38  A    between atoms: _92  and  _93
REMARK   39  A    between atoms: _98  and  _100
REMARK   40  A    between atoms: _100  and  _101
REMARK   41  A    between atoms: _100  and  _103
REMARK   42  A    between atoms: _103  and  _104
REMARK   43  A    between atoms: _107  and  _109
REMARK   44  A    between atoms: _109  and  _110
REMARK   45  A    between atoms: _109  and  _112
REMARK   46  A    between atoms: _112  and  _113
REMARK   47  A    between atoms: _116  and  _118
REMARK   48  A    between atoms: _118  and  _119
REMARK   49  A    between atoms: _118  and  _121
REMARK   50  A    between atoms: _121  and  _122
REMARK   51  A    between atoms: _125  and  _127
REMARK   52  A    between atoms: _127  and  _128
REMARK   53  A    between atoms: _127  and  _130
REMARK   54  A    between atoms: _130  and  _131
REMARK   55  A    between atoms: _133  and  _135
REMARK   56  A    between atoms: _135  and  _136
REMARK   57  A    between atoms: _138  and  _140
REMARK   58  A    between atoms: _140  and  _141
REMARK   59  A    between atoms: _143  and  _145
REMARK   60  A    between atoms: _145  and  _146
REMARK   61  A    between atoms: _145  and  _148
REMARK   62  A    between atoms: _148  and  _149
REMARK   63  A    between atoms: _154  and  _155
REMARK   64  A    between atoms: _157  and  _159
REMARK   65  A    between atoms: _159  and  _160
REMARK   66  A    between atoms: _159  and  _162
REMARK   67  A    between atoms: _162  and  _163
REMARK   68  A    between atoms: _163  and  _164
REMARK   69  A    between atoms: _169  and  _171
REMARK   70  A    between atoms: _171  and  _172
REMARK   71  A    between atoms: _171  and  _174
REMARK   72  A    between atoms: _174  and  _175
REMARK   73  A    between atoms: _178  and  _180
REMARK   74  A    between atoms: _180  and  _181
REMARK   75  A    between atoms: _180  and  _183
REMARK   76  A    between atoms: _183  and  _184
REMARK   77  A    between atoms: _184  and  _185
REMARK   78  A    between atoms: _190  and  _192
REMARK   79  A    between atoms: _192  and  _193
REMARK   80  A    between atoms: _192  and  _195
REMARK   81  A    between atoms: _195  and  _196
REMARK   82  A    between atoms: _199  and  _201
REMARK   83  A    between atoms: _201  and  _202
REMARK   84  A    between atoms: _201  and  _204
REMARK   85  A    between atoms: _204  and  _205
REMARK   86  A    between atoms: _205  and  _206
REMARK   87  A    between atoms: _208  and  _210
REMARK   88  A    between atoms: _210  and  _211
REMARK   89  A    between atoms: _214  and  _216
REMARK   90  A    between atoms: _216  and  _217
REMARK   91  A    between atoms: _216  and  _219
REMARK   92  A    between atoms: _219  and  _220
REMARK   93  A    between atoms: _226  and  _228
REMARK   94  A    between atoms: _228  and  _229
REMARK   95  A    between atoms: _228  and  _231
REMARK   96  A    between atoms: _231  and  _232
REMARK   97  A    between atoms: _235  and  _237
REMARK   98  A    between atoms: _237  and  _238
REMARK   99  A    between atoms: _237  and  _240
REMARK  100  A    between atoms: _240  and  _241
REMARK  101  A    between atoms: _241  and  _242
REMARK  102  A    between atoms: _245  and  _247
REMARK  103  A    between atoms: _247  and  _248
REMARK  104  A    between atoms: _247  and  _250
REMARK  105  A    between atoms: _252  and  _254
REMARK  106  A    between atoms: _254  and  _255
REMARK  107  A    between atoms: _254  and  _257
REMARK  108  A    between atoms: _257  and  _258
REMARK  109  A    between atoms: _261  and  _263
REMARK  110  A    between atoms: _263  and  _264
REMARK  111  A    between atoms: _263  and  _266
REMARK  112  A    between atoms: _266  and  _267
REMARK  113  A    between atoms: _269  and  _271
REMARK  114  A    between atoms: _271  and  _272
REMARK  115  A    between atoms: _271  and  _274
REMARK  116  A    between atoms: _274  and  _275
REMARK  117  A    between atoms: _278  and  _280
REMARK  118  A    between atoms: _280  and  _281
REMARK  119  A    between atoms: _280  and  _283
REMARK  120  A    between atoms: _283  and  _284
REMARK  121  A    between atoms: _284  and  _285
REMARK  122  A    between atoms: _290  and  _292
REMARK  123  A    between atoms: _292  and  _293
REMARK  124  A    between atoms: _292  and  _295
REMARK  125  A    between atoms: _295  and  _296
REMARK  126  A    between atoms: _296  and  _297
REMARK  127  A    between atoms: _302  and  _304
REMARK  128  A    between atoms: _304  and  _305
REMARK  129  A    between atoms: _307  and  _309
REMARK  130  A    between atoms: _309  and  _310
REMARK  131  A    between atoms: _309  and  _312
REMARK  132  A    between atoms: _312  and  _313
REMARK  133  A    between atoms: _315  and  _317
REMARK  134  A    between atoms: _317  and  _318
REMARK  135  A    between atoms: _317  and  _320
REMARK  136  A    between atoms: _320  and  _321
REMARK  137  A    between atoms: _321  and  _322
REMARK  138  A    between atoms: _322  and  _323
REMARK  139  A    between atoms: _332  and  _334
REMARK  140  A    between atoms: _334  and  _335
REMARK  141  A    between atoms: _338  and  _340
REMARK  142  A    between atoms: _340  and  _341
REMARK  143  A    between atoms: _340  and  _343
REMARK  144  A    between atoms: _346  and  _348
REMARK  145  A    between atoms: _348  and  _349
REMARK  146  A    between atoms: _351  and  _353
REMARK  147  A    between atoms: _353  and  _354
REMARK  148  A    between atoms: _356  and  _358
REMARK  149  A    between atoms: _358  and  _359
REMARK  150  A    between atoms: _358  and  _361
REMARK  151  A    between atoms: _361  and  _362
REMARK  152  A    between atoms: _365  and  _367
REMARK  153  A    between atoms: _367  and  _368
REMARK  154  A    between atoms: _371  and  _373
REMARK  155  A    between atoms: _373  and  _374
REMARK  156  A    between atoms: _373  and  _376
REMARK  157  A    between atoms: _379  and  _381
REMARK  158  A    between atoms: _381  and  _382
REMARK  159  A    between atoms: _384  and  _386
REMARK  160  A    between atoms: _386  and  _387
REMARK  161  A    between atoms: _386  and  _389
REMARK  162  A    between atoms: _389  and  _390
REMARK  163  A    between atoms: _390  and  _391
REMARK  164  A    between atoms: _394  and  _396
REMARK  165  A    between atoms: _396  and  _397
REMARK  166  A    between atoms: _396  and  _399
REMARK  167  A    between atoms: _399  and  _400
REMARK  168  A    between atoms: _405  and  _406
REMARK  169  A    between atoms: _408  and  _410
REMARK  170  A    between atoms: _410  and  _411
REMARK  171  A    between atoms: _410  and  _413
REMARK  172  A    between atoms: _413  and  _414
REMARK  173  A    between atoms: _417  and  _419
REMARK  174  A    between atoms: _419  and  _420
REMARK  175  A    between atoms: _419  and  _422
REMARK  176  A    between atoms: _422  and  _423
REMARK  177  A    between atoms: _423  and  _424
REMARK  178  A    between atoms: _426  and  _428
REMARK  179  A    between atoms: _428  and  _429
REMARK  180  A    between atoms: _431  and  _433
REMARK  181  A    between atoms: _433  and  _434
REMARK  182  A    between atoms: _433  and  _436
REMARK  183  A    between atoms: _439  and  _441
REMARK  184  A    between atoms: _441  and  _442
REMARK  185  A    between atoms: _444  and  _446
REMARK  186  A    between atoms: _446  and  _447
REMARK  187  A    between atoms: _446  and  _449
REMARK  188  A    between atoms: _449  and  _450
REMARK  189  A    between atoms: _456  and  _458
REMARK  190  A    between atoms: _458  and  _459
REMARK  191  A    between atoms: _458  and  _461
REMARK  192  A    between atoms: _461  and  _462
REMARK  193  A    between atoms: _465  and  _467
REMARK  194  A    between atoms: _467  and  _468
REMARK  195  A    between atoms: _467  and  _470
REMARK  196  A    between atoms: _472  and  _474
REMARK  197  A    between atoms: _474  and  _475
REMARK  198  A    between atoms: _474  and  _477
REMARK  199  A    between atoms: _480  and  _482
REMARK  200  A    between atoms: _482  and  _483
REMARK  201  A    between atoms: _482  and  _485
REMARK  202  A    between atoms: _485  and  _486
REMARK  203  A    between atoms: _489  and  _491
REMARK  204  A    between atoms: _491  and  _492
REMARK  205  A    between atoms: _491  and  _494
REMARK  206  A    between atoms: _494  and  _495
REMARK  207  A    between atoms: _498  and  _500
REMARK  208  A    between atoms: _500  and  _501
REMARK  209  A    between atoms: _500  and  _503
REMARK  210  A    between atoms: _503  and  _504
REMARK  211  A    between atoms: _504  and  _505
REMARK  212  A    between atoms: _505  and  _506
REMARK                            x       y       z     vdW  Elec       q    Type
REMARK                         _______ _______ _______ _____ _____    ______ ____
ROOT
ATOM      1  O   HOH     1      92.536  13.951   9.623  0.00  0.00    +0.000 OA
ENDROOT
TORSDOF 0
REMARK  Name = ../refined-set-2016/4kwo/4kwo_pocket.pdb
REMARK  212 active torsions:
REMARK  status: ('A' for Active; 'I' for Inactive)
REMARK    1  A    between atoms: _1  and  _3
REMARK    2  A    between atoms: _3  and  _4
REMARK    3  A    between atoms: _3  and  _6
REMARK    4  A    between atoms: _6  and  _7
REMARK    5  A    between atoms: _7  and  _8
REMARK    6  A    between atoms: _11  and  _12
REMARK    7  A    between atoms: _17  and  _19
REMARK    8  A    between atoms: _19  and  _20
REMARK    9  A    between atoms: _19  and  _22
REMARK   10  A    between atoms: _25  and  _27
REMARK   11  A    between atoms: _27  and  _28
REMARK   12  A    between atoms: _30  and  _32
REMARK   13  A    between atoms: _32  and  _33
REMARK   14  A    between atoms: _32  and  _35
REMARK   15  A    between atoms: _35  and  _36
REMARK   16  A    between atoms: _39  and  _41
REMARK   17  A    between atoms: _41  and  _42
REMARK   18  A    between atoms: _41  and  _44
REMARK   19  A    between atoms: _44  and  _45
REMARK   20  A    between atoms: _48  and  _50
REMARK   21  A    between atoms: _50  and  _51
REMARK   22  A    between atoms: _53  and  _55
REMARK   23  A    between atoms: _55  and  _56
REMARK   24  A    between atoms: _55  and  _58
REMARK   25  A    between atoms: _58  and  _59
REMARK   26  A    between atoms: _64  and  _66
REMARK   27  A    between atoms: _66  and  _67
REMARK   28  A    between atoms: _66  and  _69
REMARK   29  A    between atoms: _69  and  _70
REMARK   30  A    between atoms: _73  and  _75
REMARK   31  A    between atoms: _75  and  _76
REMARK   32  A    between atoms: _75  and  _78
REMARK   33  A    between atoms: _78  and  _79
REMARK   34  A    between atoms: _84  and  _85
REMARK   35  A    between atoms: _87  and  _89
REMARK   36  A    between atoms: _89  and  _90
REMARK   37  A    between atoms: _89  and  _92
REMARK   38  A    between atoms: _92  and  _93
REMARK   39  A    between atoms: _98  and  _100
REMARK   40  A    between atoms: _100  and  _101
REMARK   41  A    between atoms: _100  and  _103
REMARK   42  A    between atoms: _103  and  _104
REMARK   43  A    between atoms: _107  and  _109
REMARK   44  A    between atoms: _109  and  _110
REMARK   45  A    between atoms: _109  and  _112
REMARK   46  A    between atoms: _112  and  _113
REMARK   47  A    between atoms: _116  and  _118
REMARK   48  A    between atoms: _118  and  _119
REMARK   49  A    between atoms: _118  and  _121
REMARK   50  A    between atoms: _121  and  _122
REMARK   51  A    between atoms: _125  and  _127
REMARK   52  A    between atoms: _127  and  _128
REMARK   53  A    between atoms: _127  and  _130
REMARK   54  A    between atoms: _130  and  _131
REMARK   55  A    between atoms: _133  and  _135
REMARK   56  A    between atoms: _135  and  _136
REMARK   57  A    between atoms: _138  and  _140
REMARK   58  A    between atoms: _140  and  _141
REMARK   59  A    between atoms: _143  and  _145
REMARK   60  A    between atoms: _145  and  _146
REMARK   61  A    between atoms: _145  and  _148
REMARK   62  A    between atoms: _148  and  _149
REMARK   63  A    between atoms: _154  and  _155
REMARK   64  A    between atoms: _157  and  _159
REMARK   65  A    between atoms: _159  and  _160
REMARK   66  A    between atoms: _159  and  _162
REMARK   67  A    between atoms: _162  and  _163
REMARK   68  A    between atoms: _163  and  _164
REMARK   69  A    between atoms: _169  and  _171
REMARK   70  A    between atoms: _171  and  _172
REMARK   71  A    between atoms: _171  and  _174
REMARK   72  A    between atoms: _174  and  _175
REMARK   73  A    between atoms: _178  and  _180
REMARK   74  A    between atoms: _180  and  _181
REMARK   75  A    between atoms: _180  and  _183
REMARK   76  A    between atoms: _183  and  _184
REMARK   77  A    between atoms: _184  and  _185
REMARK   78  A    between atoms: _190  and  _192
REMARK   79  A    between atoms: _192  and  _193
REMARK   80  A    between atoms: _192  and  _195
REMARK   81  A    between atoms: _195  and  _196
REMARK   82  A    between atoms: _199  and  _201
REMARK   83  A    between atoms: _201  and  _202
REMARK   84  A    between atoms: _201  and  _204
REMARK   85  A    between atoms: _204  and  _205
REMARK   86  A    between atoms: _205  and  _206
REMARK   87  A    between atoms: _208  and  _210
REMARK   88  A    between atoms: _210  and  _211
REMARK   89  A    between atoms: _214  and  _216
REMARK   90  A    between atoms: _216  and  _217
REMARK   91  A    between atoms: _216  and  _219
REMARK   92  A    between atoms: _219  and  _220
REMARK   93  A    between atoms: _226  and  _228
REMARK   94  A    between atoms: _228  and  _229
REMARK   95  A    between atoms: _228  and  _231
REMARK   96  A    between atoms: _231  and  _232
REMARK   97  A    between atoms: _235  and  _237
REMARK   98  A    between atoms: _237  and  _238
REMARK   99  A    between atoms: _237  and  _240
REMARK  100  A    between atoms: _240  and  _241
REMARK  101  A    between atoms: _241  and  _242
REMARK  102  A    between atoms: _245  and  _247
REMARK  103  A    between atoms: _247  and  _248
REMARK  104  A    between atoms: _247  and  _250
REMARK  105  A    between atoms: _252  and  _254
REMARK  106  A    between atoms: _254  and  _255
REMARK  107  A    between atoms: _254  and  _257
REMARK  108  A    between atoms: _257  and  _258
REMARK  109  A    between atoms: _261  and  _263
REMARK  110  A    between atoms: _263  and  _264
REMARK  111  A    between atoms: _263  and  _266
REMARK  112  A    between atoms: _266  and  _267
REMARK  113  A    between atoms: _269  and  _271
REMARK  114  A    between atoms: _271  and  _272
REMARK  115  A    between atoms: _271  and  _274
REMARK  116  A    between atoms: _274  and  _275
REMARK  117  A    between atoms: _278  and  _280
REMARK  118  A    between atoms: _280  and  _281
REMARK  119  A    between atoms: _280  and  _283
REMARK  120  A    between atoms: _283  and  _284
REMARK  121  A    between atoms: _284  and  _285
REMARK  122  A    between atoms: _290  and  _292
REMARK  123  A    between atoms: _292  and  _293
REMARK  124  A    between atoms: _292  and  _295
REMARK  125  A    between atoms: _295  and  _296
REMARK  126  A    between atoms: _296  and  _297
REMARK  127  A    between atoms: _302  and  _304
REMARK  128  A    between atoms: _304  and  _305
REMARK  129  A    between atoms: _307  and  _309
REMARK  130  A    between atoms: _309  and  _310
REMARK  131  A    between atoms: _309  and  _312
REMARK  132  A    between atoms: _312  and  _313
REMARK  133  A    between atoms: _315  and  _317
REMARK  134  A    between atoms: _317  and  _318
REMARK  135  A    between atoms: _317  and  _320
REMARK  136  A    between atoms: _320  and  _321
REMARK  137  A    between atoms: _321  and  _322
REMARK  138  A    between atoms: _322  and  _323
REMARK  139  A    between atoms: _332  and  _334
REMARK  140  A    between atoms: _334  and  _335
REMARK  141  A    between atoms: _338  and  _340
REMARK  142  A    between atoms: _340  and  _341
REMARK  143  A    between atoms: _340  and  _343
REMARK  144  A    between atoms: _346  and  _348
REMARK  145  A    between atoms: _348  and  _349
REMARK  146  A    between atoms: _351  and  _353
REMARK  147  A    between atoms: _353  and  _354
REMARK  148  A    between atoms: _356  and  _358
REMARK  149  A    between atoms: _358  and  _359
REMARK  150  A    between atoms: _358  and  _361
REMARK  151  A    between atoms: _361  and  _362
REMARK  152  A    between atoms: _365  and  _367
REMARK  153  A    between atoms: _367  and  _368
REMARK  154  A    between atoms: _371  and  _373
REMARK  155  A    between atoms: _373  and  _374
REMARK  156  A    between atoms: _373  and  _376
REMARK  157  A    between atoms: _379  and  _381
REMARK  158  A    between atoms: _381  and  _382
REMARK  159  A    between atoms: _384  and  _386
REMARK  160  A    between atoms: _386  and  _387
REMARK  161  A    between atoms: _386  and  _389
REMARK  162  A    between atoms: _389  and  _390
REMARK  163  A    between atoms: _390  and  _391
REMARK  164  A    between atoms: _394  and  _396
REMARK  165  A    between atoms: _396  and  _397
REMARK  166  A    between atoms: _396  and  _399
REMARK  167  A    between atoms: _399  and  _400
REMARK  168  A    between atoms: _405  and  _406
REMARK  169  A    between atoms: _408  and  _410
REMARK  170  A    between atoms: _410  and  _411
REMARK  171  A    between atoms: _410  and  _413
REMARK  172  A    between atoms: _413  and  _414
REMARK  173  A    between atoms: _417  and  _419
REMARK  174  A    between atoms: _419  and  _420
REMARK  175  A    between atoms: _419  and  _422
REMARK  176  A    between atoms: _422  and  _423
REMARK  177  A    between atoms: _423  and  _424
REMARK  178  A    between atoms: _426  and  _428
REMARK  179  A    between atoms: _428  and  _429
REMARK  180  A    between atoms: _431  and  _433
REMARK  181  A    between atoms: _433  and  _434
REMARK  182  A    between atoms: _433  and  _436
REMARK  183  A    between atoms: _439  and  _441
REMARK  184  A    between atoms: _441  and  _442
REMARK  185  A    between atoms: _444  and  _446
REMARK  186  A    between atoms: _446  and  _447
REMARK  187  A    between atoms: _446  and  _449
REMARK  188  A    between atoms: _449  and  _450
REMARK  189  A    between atoms: _456  and  _458
REMARK  190  A    between atoms: _458  and  _459
REMARK  191  A    between atoms: _458  and  _461
REMARK  192  A    between atoms: _461  and  _462
REMARK  193  A    between atoms: _465  and  _467
REMARK  194  A    between atoms: _467  and  _468
REMARK  195  A    between atoms: _467  and  _470
REMARK  196  A    between atoms: _472  and  _474
REMARK  197  A    between atoms: _474  and  _475
REMARK  198  A    between atoms: _474  and  _477
REMARK  199  A    between atoms: _480  and  _482
REMARK  200  A    between atoms: _482  and  _483
REMARK  201  A    between atoms: _482  and  _485
REMARK  202  A    between atoms: _485  and  _486
REMARK  203  A    between atoms: _489  and  _491
REMARK  204  A    between atoms: _491  and  _492
REMARK  205  A    between atoms: _491  and  _494
REMARK  206  A    between atoms: _494  and  _495
REMARK  207  A    between atoms: _498  and  _500
REMARK  208  A    between atoms: _500  and  _501
REMARK  209  A    between atoms: _500  and  _503
REMARK  210  A    between atoms: _503  and  _504
REMARK  211  A    between atoms: _504  and  _505
REMARK  212  A    between atoms: _505  and  _506
REMARK                            x       y       z     vdW  Elec       q    Type
REMARK                         _______ _______ _______ _____ _____    ______ ____
ROOT
ATOM      1  O   HOH     1      99.428  18.478  25.491  0.00  0.00    +0.000 OA
ENDROOT
TORSDOF 0
REMARK  Name = ../refined-set-2016/4kwo/4kwo_pocket.pdb
REMARK  212 active torsions:
REMARK  status: ('A' for Active; 'I' for Inactive)
REMARK    1  A    between atoms: _1  and  _3
REMARK    2  A    between atoms: _3  and  _4
REMARK    3  A    between atoms: _3  and  _6
REMARK    4  A    between atoms: _6  and  _7
REMARK    5  A    between atoms: _7  and  _8
REMARK    6  A    between atoms: _11  and  _12
REMARK    7  A    between atoms: _17  and  _19
REMARK    8  A    between atoms: _19  and  _20
REMARK    9  A    between atoms: _19  and  _22
REMARK   10  A    between atoms: _25  and  _27
REMARK   11  A    between atoms: _27  and  _28
REMARK   12  A    between atoms: _30  and  _32
REMARK   13  A    between atoms: _32  and  _33
REMARK   14  A    between atoms: _32  and  _35
REMARK   15  A    between atoms: _35  and  _36
REMARK   16  A    between atoms: _39  and  _41
REMARK   17  A    between atoms: _41  and  _42
REMARK   18  A    between atoms: _41  and  _44
REMARK   19  A    between atoms: _44  and  _45
REMARK   20  A    between atoms: _48  and  _50
REMARK   21  A    between atoms: _50  and  _51
REMARK   22  A    between atoms: _53  and  _55
REMARK   23  A    between atoms: _55  and  _56
REMARK   24  A    between atoms: _55  and  _58
REMARK   25  A    between atoms: _58  and  _59
REMARK   26  A    between atoms: _64  and  _66
REMARK   27  A    between atoms: _66  and  _67
REMARK   28  A    between atoms: _66  and  _69
REMARK   29  A    between atoms: _69  and  _70
REMARK   30  A    between atoms: _73  and  _75
REMARK   31  A    between atoms: _75  and  _76
REMARK   32  A    between atoms: _75  and  _78
REMARK   33  A    between atoms: _78  and  _79
REMARK   34  A    between atoms: _84  and  _85
REMARK   35  A    between atoms: _87  and  _89
REMARK   36  A    between atoms: _89  and  _90
REMARK   37  A    between atoms: _89  and  _92
REMARK   38  A    between atoms: _92  and  _93
REMARK   39  A    between atoms: _98  and  _100
REMARK   40  A    between atoms: _100  and  _101
REMARK   41  A    between atoms: _100  and  _103
REMARK   42  A    between atoms: _103  and  _104
REMARK   43  A    between atoms: _107  and  _109
REMARK   44  A    between atoms: _109  and  _110
REMARK   45  A    between atoms: _109  and  _112
REMARK   46  A    between atoms: _112  and  _113
REMARK   47  A    between atoms: _116  and  _118
REMARK   48  A    between atoms: _118  and  _119
REMARK   49  A    between atoms: _118  and  _121
REMARK   50  A    between atoms: _121  and  _122
REMARK   51  A    between atoms: _125  and  _127
REMARK   52  A    between atoms: _127  and  _128
REMARK   53  A    between atoms: _127  and  _130
REMARK   54  A    between atoms: _130  and  _131
REMARK   55  A    between atoms: _133  and  _135
REMARK   56  A    between atoms: _135  and  _136
REMARK   57  A    between atoms: _138  and  _140
REMARK   58  A    between atoms: _140  and  _141
REMARK   59  A    between atoms: _143  and  _145
REMARK   60  A    between atoms: _145  and  _146
REMARK   61  A    between atoms: _145  and  _148
REMARK   62  A    between atoms: _148  and  _149
REMARK   63  A    between atoms: _154  and  _155
REMARK   64  A    between atoms: _157  and  _159
REMARK   65  A    between atoms: _159  and  _160
REMARK   66  A    between atoms: _159  and  _162
REMARK   67  A    between atoms: _162  and  _163
REMARK   68  A    between atoms: _163  and  _164
REMARK   69  A    between atoms: _169  and  _171
REMARK   70  A    between atoms: _171  and  _172
REMARK   71  A    between atoms: _171  and  _174
REMARK   72  A    between atoms: _174  and  _175
REMARK   73  A    between atoms: _178  and  _180
REMARK   74  A    between atoms: _180  and  _181
REMARK   75  A    between atoms: _180  and  _183
REMARK   76  A    between atoms: _183  and  _184
REMARK   77  A    between atoms: _184  and  _185
REMARK   78  A    between atoms: _190  and  _192
REMARK   79  A    between atoms: _192  and  _193
REMARK   80  A    between atoms: _192  and  _195
REMARK   81  A    between atoms: _195  and  _196
REMARK   82  A    between atoms: _199  and  _201
REMARK   83  A    between atoms: _201  and  _202
REMARK   84  A    between atoms: _201  and  _204
REMARK   85  A    between atoms: _204  and  _205
REMARK   86  A    between atoms: _205  and  _206
REMARK   87  A    between atoms: _208  and  _210
REMARK   88  A    between atoms: _210  and  _211
REMARK   89  A    between atoms: _214  and  _216
REMARK   90  A    between atoms: _216  and  _217
REMARK   91  A    between atoms: _216  and  _219
REMARK   92  A    between atoms: _219  and  _220
REMARK   93  A    between atoms: _226  and  _228
REMARK   94  A    between atoms: _228  and  _229
REMARK   95  A    between atoms: _228  and  _231
REMARK   96  A    between atoms: _231  and  _232
REMARK   97  A    between atoms: _235  and  _237
REMARK   98  A    between atoms: _237  and  _238
REMARK   99  A    between atoms: _237  and  _240
REMARK  100  A    between atoms: _240  and  _241
REMARK  101  A    between atoms: _241  and  _242
REMARK  102  A    between atoms: _245  and  _247
REMARK  103  A    between atoms: _247  and  _248
REMARK  104  A    between atoms: _247  and  _250
REMARK  105  A    between atoms: _252  and  _254
REMARK  106  A    between atoms: _254  and  _255
REMARK  107  A    between atoms: _254  and  _257
REMARK  108  A    between atoms: _257  and  _258
REMARK  109  A    between atoms: _261  and  _263
REMARK  110  A    between atoms: _263  and  _264
REMARK  111  A    between atoms: _263  and  _266
REMARK  112  A    between atoms: _266  and  _267
REMARK  113  A    between atoms: _269  and  _271
REMARK  114  A    between atoms: _271  and  _272
REMARK  115  A    between atoms: _271  and  _274
REMARK  116  A    between atoms: _274  and  _275
REMARK  117  A    between atoms: _278  and  _280
REMARK  118  A    between atoms: _280  and  _281
REMARK  119  A    between atoms: _280  and  _283
REMARK  120  A    between atoms: _283  and  _284
REMARK  121  A    between atoms: _284  and  _285
REMARK  122  A    between atoms: _290  and  _292
REMARK  123  A    between atoms: _292  and  _293
REMARK  124  A    between atoms: _292  and  _295
REMARK  125  A    between atoms: _295  and  _296
REMARK  126  A    between atoms: _296  and  _297
REMARK  127  A    between atoms: _302  and  _304
REMARK  128  A    between atoms: _304  and  _305
REMARK  129  A    between atoms: _307  and  _309
REMARK  130  A    between atoms: _309  and  _310
REMARK  131  A    between atoms: _309  and  _312
REMARK  132  A    between atoms: _312  and  _313
REMARK  133  A    between atoms: _315  and  _317
REMARK  134  A    between atoms: _317  and  _318
REMARK  135  A    between atoms: _317  and  _320
REMARK  136  A    between atoms: _320  and  _321
REMARK  137  A    between atoms: _321  and  _322
REMARK  138  A    between atoms: _322  and  _323
REMARK  139  A    between atoms: _332  and  _334
REMARK  140  A    between atoms: _334  and  _335
REMARK  141  A    between atoms: _338  and  _340
REMARK  142  A    between atoms: _340  and  _341
REMARK  143  A    between atoms: _340  and  _343
REMARK  144  A    between atoms: _346  and  _348
REMARK  145  A    between atoms: _348  and  _349
REMARK  146  A    between atoms: _351  and  _353
REMARK  147  A    between atoms: _353  and  _354
REMARK  148  A    between atoms: _356  and  _358
REMARK  149  A    between atoms: _358  and  _359
REMARK  150  A    between atoms: _358  and  _361
REMARK  151  A    between atoms: _361  and  _362
REMARK  152  A    between atoms: _365  and  _367
REMARK  153  A    between atoms: _367  and  _368
REMARK  154  A    between atoms: _371  and  _373
REMARK  155  A    between atoms: _373  and  _374
REMARK  156  A    between atoms: _373  and  _376
REMARK  157  A    between atoms: _379  and  _381
REMARK  158  A    between atoms: _381  and  _382
REMARK  159  A    between atoms: _384  and  _386
REMARK  160  A    between atoms: _386  and  _387
REMARK  161  A    between atoms: _386  and  _389
REMARK  162  A    between atoms: _389  and  _390
REMARK  163  A    between atoms: _390  and  _391
REMARK  164  A    between atoms: _394  and  _396
REMARK  165  A    between atoms: _396  and  _397
REMARK  166  A    between atoms: _396  and  _399
REMARK  167  A    between atoms: _399  and  _400
REMARK  168  A    between atoms: _405  and  _406
REMARK  169  A    between atoms: _408  and  _410
REMARK  170  A    between atoms: _410  and  _411
REMARK  171  A    between atoms: _410  and  _413
REMARK  172  A    between atoms: _413  and  _414
REMARK  173  A    between atoms: _417  and  _419
REMARK  174  A    between atoms: _419  and  _420
REMARK  175  A    between atoms: _419  and  _422
REMARK  176  A    between atoms: _422  and  _423
REMARK  177  A    between atoms: _423  and  _424
REMARK  178  A    between atoms: _426  and  _428
REMARK  179  A    between atoms: _428  and  _429
REMARK  180  A    between atoms: _431  and  _433
REMARK  181  A    between atoms: _433  and  _434
REMARK  182  A    between atoms: _433  and  _436
REMARK  183  A    between atoms: _439  and  _441
REMARK  184  A    between atoms: _441  and  _442
REMARK  185  A    between atoms: _444  and  _446
REMARK  186  A    between atoms: _446  and  _447
REMARK  187  A    between atoms: _446  and  _449
REMARK  188  A    between atoms: _449  and  _450
REMARK  189  A    between atoms: _456  and  _458
REMARK  190  A    between atoms: _458  and  _459
REMARK  191  A    between atoms: _458  and  _461
REMARK  192  A    between atoms: _461  and  _462
REMARK  193  A    between atoms: _465  and  _467
REMARK  194  A    between atoms: _467  and  _468
REMARK  195  A    between atoms: _467  and  _470
REMARK  196  A    between atoms: _472  and  _474
REMARK  197  A    between atoms: _474  and  _475
REMARK  198  A    between atoms: _474  and  _477
REMARK  199  A    between atoms: _480  and  _482
REMARK  200  A    between atoms: _482  and  _483
REMARK  201  A    between atoms: _482  and  _485
REMARK  202  A    between atoms: _485  and  _486
REMARK  203  A    between atoms: _489  and  _491
REMARK  204  A    between atoms: _491  and  _492
REMARK  205  A    between atoms: _491  and  _494
REMARK  206  A    between atoms: _494  and  _495
REMARK  207  A    between atoms: _498  and  _500
REMARK  208  A    between atoms: _500  and  _501
REMARK  209  A    between atoms: _500  and  _503
REMARK  210  A    between atoms: _503  and  _504
REMARK  211  A    between atoms: _504  and  _505
REMARK  212  A    between atoms: _505  and  _506
REMARK                            x       y       z     vdW  Elec       q    Type
REMARK                         _______ _______ _______ _____ _____    ______ ____
ROOT
ATOM      1  O   HOH     1      98.583  18.017  14.025  0.00  0.00    +0.000 OA
ENDROOT
TORSDOF 0
REMARK  Name = ../refined-set-2016/4kwo/4kwo_pocket.pdb
REMARK  212 active torsions:
REMARK  status: ('A' for Active; 'I' for Inactive)
REMARK    1  A    between atoms: _1  and  _3
REMARK    2  A    between atoms: _3  and  _4
REMARK    3  A    between atoms: _3  and  _6
REMARK    4  A    between atoms: _6  and  _7
REMARK    5  A    between atoms: _7  and  _8
REMARK    6  A    between atoms: _11  and  _12
REMARK    7  A    between atoms: _17  and  _19
REMARK    8  A    between atoms: _19  and  _20
REMARK    9  A    between atoms: _19  and  _22
REMARK   10  A    between atoms: _25  and  _27
REMARK   11  A    between atoms: _27  and  _28
REMARK   12  A    between atoms: _30  and  _32
REMARK   13  A    between atoms: _32  and  _33
REMARK   14  A    between atoms: _32  and  _35
REMARK   15  A    between atoms: _35  and  _36
REMARK   16  A    between atoms: _39  and  _41
REMARK   17  A    between atoms: _41  and  _42
REMARK   18  A    between atoms: _41  and  _44
REMARK   19  A    between atoms: _44  and  _45
REMARK   20  A    between atoms: _48  and  _50
REMARK   21  A    between atoms: _50  and  _51
REMARK   22  A    between atoms: _53  and  _55
REMARK   23  A    between atoms: _55  and  _56
REMARK   24  A    between atoms: _55  and  _58
REMARK   25  A    between atoms: _58  and  _59
REMARK   26  A    between atoms: _64  and  _66
REMARK   27  A    between atoms: _66  and  _67
REMARK   28  A    between atoms: _66  and  _69
REMARK   29  A    between atoms: _69  and  _70
REMARK   30  A    between atoms: _73  and  _75
REMARK   31  A    between atoms: _75  and  _76
REMARK   32  A    between atoms: _75  and  _78
REMARK   33  A    between atoms: _78  and  _79
REMARK   34  A    between atoms: _84  and  _85
REMARK   35  A    between atoms: _87  and  _89
REMARK   36  A    between atoms: _89  and  _90
REMARK   37  A    between atoms: _89  and  _92
REMARK   38  A    between atoms: _92  and  _93
REMARK   39  A    between atoms: _98  and  _100
REMARK   40  A    between atoms: _100  and  _101
REMARK   41  A    between atoms: _100  and  _103
REMARK   42  A    between atoms: _103  and  _104
REMARK   43  A    between atoms: _107  and  _109
REMARK   44  A    between atoms: _109  and  _110
REMARK   45  A    between atoms: _109  and  _112
REMARK   46  A    between atoms: _112  and  _113
REMARK   47  A    between atoms: _116  and  _118
REMARK   48  A    between atoms: _118  and  _119
REMARK   49  A    between atoms: _118  and  _121
REMARK   50  A    between atoms: _121  and  _122
REMARK   51  A    between atoms: _125  and  _127
REMARK   52  A    between atoms: _127  and  _128
REMARK   53  A    between atoms: _127  and  _130
REMARK   54  A    between atoms: _130  and  _131
REMARK   55  A    between atoms: _133  and  _135
REMARK   56  A    between atoms: _135  and  _136
REMARK   57  A    between atoms: _138  and  _140
REMARK   58  A    between atoms: _140  and  _141
REMARK   59  A    between atoms: _143  and  _145
REMARK   60  A    between atoms: _145  and  _146
REMARK   61  A    between atoms: _145  and  _148
REMARK   62  A    between atoms: _148  and  _149
REMARK   63  A    between atoms: _154  and  _155
REMARK   64  A    between atoms: _157  and  _159
REMARK   65  A    between atoms: _159  and  _160
REMARK   66  A    between atoms: _159  and  _162
REMARK   67  A    between atoms: _162  and  _163
REMARK   68  A    between atoms: _163  and  _164
REMARK   69  A    between atoms: _169  and  _171
REMARK   70  A    between atoms: _171  and  _172
REMARK   71  A    between atoms: _171  and  _174
REMARK   72  A    between atoms: _174  and  _175
REMARK   73  A    between atoms: _178  and  _180
REMARK   74  A    between atoms: _180  and  _181
REMARK   75  A    between atoms: _180  and  _183
REMARK   76  A    between atoms: _183  and  _184
REMARK   77  A    between atoms: _184  and  _185
REMARK   78  A    between atoms: _190  and  _192
REMARK   79  A    between atoms: _192  and  _193
REMARK   80  A    between atoms: _192  and  _195
REMARK   81  A    between atoms: _195  and  _196
REMARK   82  A    between atoms: _199  and  _201
REMARK   83  A    between atoms: _201  and  _202
REMARK   84  A    between atoms: _201  and  _204
REMARK   85  A    between atoms: _204  and  _205
REMARK   86  A    between atoms: _205  and  _206
REMARK   87  A    between atoms: _208  and  _210
REMARK   88  A    between atoms: _210  and  _211
REMARK   89  A    between atoms: _214  and  _216
REMARK   90  A    between atoms: _216  and  _217
REMARK   91  A    between atoms: _216  and  _219
REMARK   92  A    between atoms: _219  and  _220
REMARK   93  A    between atoms: _226  and  _228
REMARK   94  A    between atoms: _228  and  _229
REMARK   95  A    between atoms: _228  and  _231
REMARK   96  A    between atoms: _231  and  _232
REMARK   97  A    between atoms: _235  and  _237
REMARK   98  A    between atoms: _237  and  _238
REMARK   99  A    between atoms: _237  and  _240
REMARK  100  A    between atoms: _240  and  _241
REMARK  101  A    between atoms: _241  and  _242
REMARK  102  A    between atoms: _245  and  _247
REMARK  103  A    between atoms: _247  and  _248
REMARK  104  A    between atoms: _247  and  _250
REMARK  105  A    between atoms: _252  and  _254
REMARK  106  A    between atoms: _254  and  _255
REMARK  107  A    between atoms: _254  and  _257
REMARK  108  A    between atoms: _257  and  _258
REMARK  109  A    between atoms: _261  and  _263
REMARK  110  A    between atoms: _263  and  _264
REMARK  111  A    between atoms: _263  and  _266
REMARK  112  A    between atoms: _266  and  _267
REMARK  113  A    between atoms: _269  and  _271
REMARK  114  A    between atoms: _271  and  _272
REMARK  115  A    between atoms: _271  and  _274
REMARK  116  A    between atoms: _274  and  _275
REMARK  117  A    between atoms: _278  and  _280
REMARK  118  A    between atoms: _280  and  _281
REMARK  119  A    between atoms: _280  and  _283
REMARK  120  A    between atoms: _283  and  _284
REMARK  121  A    between atoms: _284  and  _285
REMARK  122  A    between atoms: _290  and  _292
REMARK  123  A    between atoms: _292  and  _293
REMARK  124  A    between atoms: _292  and  _295
REMARK  125  A    between atoms: _295  and  _296
REMARK  126  A    between atoms: _296  and  _297
REMARK  127  A    between atoms: _302  and  _304
REMARK  128  A    between atoms: _304  and  _305
REMARK  129  A    between atoms: _307  and  _309
REMARK  130  A    between atoms: _309  and  _310
REMARK  131  A    between atoms: _309  and  _312
REMARK  132  A    between atoms: _312  and  _313
REMARK  133  A    between atoms: _315  and  _317
REMARK  134  A    between atoms: _317  and  _318
REMARK  135  A    between atoms: _317  and  _320
REMARK  136  A    between atoms: _320  and  _321
REMARK  137  A    between atoms: _321  and  _322
REMARK  138  A    between atoms: _322  and  _323
REMARK  139  A    between atoms: _332  and  _334
REMARK  140  A    between atoms: _334  and  _335
REMARK  141  A    between atoms: _338  and  _340
REMARK  142  A    between atoms: _340  and  _341
REMARK  143  A    between atoms: _340  and  _343
REMARK  144  A    between atoms: _346  and  _348
REMARK  145  A    between atoms: _348  and  _349
REMARK  146  A    between atoms: _351  and  _353
REMARK  147  A    between atoms: _353  and  _354
REMARK  148  A    between atoms: _356  and  _358
REMARK  149  A    between atoms: _358  and  _359
REMARK  150  A    between atoms: _358  and  _361
REMARK  151  A    between atoms: _361  and  _362
REMARK  152  A    between atoms: _365  and  _367
REMARK  153  A    between atoms: _367  and  _368
REMARK  154  A    between atoms: _371  and  _373
REMARK  155  A    between atoms: _373  and  _374
REMARK  156  A    between atoms: _373  and  _376
REMARK  157  A    between atoms: _379  and  _381
REMARK  158  A    between atoms: _381  and  _382
REMARK  159  A    between atoms: _384  and  _386
REMARK  160  A    between atoms: _386  and  _387
REMARK  161  A    between atoms: _386  and  _389
REMARK  162  A    between atoms: _389  and  _390
REMARK  163  A    between atoms: _390  and  _391
REMARK  164  A    between atoms: _394  and  _396
REMARK  165  A    between atoms: _396  and  _397
REMARK  166  A    between atoms: _396  and  _399
REMARK  167  A    between atoms: _399  and  _400
REMARK  168  A    between atoms: _405  and  _406
REMARK  169  A    between atoms: _408  and  _410
REMARK  170  A    between atoms: _410  and  _411
REMARK  171  A    between atoms: _410  and  _413
REMARK  172  A    between atoms: _413  and  _414
REMARK  173  A    between atoms: _417  and  _419
REMARK  174  A    between atoms: _419  and  _420
REMARK  175  A    between atoms: _419  and  _422
REMARK  176  A    between atoms: _422  and  _423
REMARK  177  A    between atoms: _423  and  _424
REMARK  178  A    between atoms: _426  and  _428
REMARK  179  A    between atoms: _428  and  _429
REMARK  180  A    between atoms: _431  and  _433
REMARK  181  A    between atoms: _433  and  _434
REMARK  182  A    between atoms: _433  and  _436
REMARK  183  A    between atoms: _439  and  _441
REMARK  184  A    between atoms: _441  and  _442
REMARK  185  A    between atoms: _444  and  _446
REMARK  186  A    between atoms: _446  and  _447
REMARK  187  A    between atoms: _446  and  _449
REMARK  188  A    between atoms: _449  and  _450
REMARK  189  A    between atoms: _456  and  _458
REMARK  190  A    between atoms: _458  and  _459
REMARK  191  A    between atoms: _458  and  _461
REMARK  192  A    between atoms: _461  and  _462
REMARK  193  A    between atoms: _465  and  _467
REMARK  194  A    between atoms: _467  and  _468
REMARK  195  A    between atoms: _467  and  _470
REMARK  196  A    between atoms: _472  and  _474
REMARK  197  A    between atoms: _474  and  _475
REMARK  198  A    between atoms: _474  and  _477
REMARK  199  A    between atoms: _480  and  _482
REMARK  200  A    between atoms: _482  and  _483
REMARK  201  A    between atoms: _482  and  _485
REMARK  202  A    between atoms: _485  and  _486
REMARK  203  A    between atoms: _489  and  _491
REMARK  204  A    between atoms: _491  and  _492
REMARK  205  A    between atoms: _491  and  _494
REMARK  206  A    between atoms: _494  and  _495
REMARK  207  A    between atoms: _498  and  _500
REMARK  208  A    between atoms: _500  and  _501
REMARK  209  A    between atoms: _500  and  _503
REMARK  210  A    between atoms: _503  and  _504
REMARK  211  A    between atoms: _504  and  _505
REMARK  212  A    between atoms: _505  and  _506
REMARK                            x       y       z     vdW  Elec       q    Type
REMARK                         _______ _______ _______ _____ _____    ______ ____
ROOT
ATOM      1  O   HOH     1     110.262  17.533  14.013  0.00  0.00    +0.000 OA
ENDROOT
TORSDOF 0
REMARK  Name = ../refined-set-2016/4kwo/4kwo_pocket.pdb
REMARK  212 active torsions:
REMARK  status: ('A' for Active; 'I' for Inactive)
REMARK    1  A    between atoms: _1  and  _3
REMARK    2  A    between atoms: _3  and  _4
REMARK    3  A    between atoms: _3  and  _6
REMARK    4  A    between atoms: _6  and  _7
REMARK    5  A    between atoms: _7  and  _8
REMARK    6  A    between atoms: _11  and  _12
REMARK    7  A    between atoms: _17  and  _19
REMARK    8  A    between atoms: _19  and  _20
REMARK    9  A    between atoms: _19  and  _22
REMARK   10  A    between atoms: _25  and  _27
REMARK   11  A    between atoms: _27  and  _28
REMARK   12  A    between atoms: _30  and  _32
REMARK   13  A    between atoms: _32  and  _33
REMARK   14  A    between atoms: _32  and  _35
REMARK   15  A    between atoms: _35  and  _36
REMARK   16  A    between atoms: _39  and  _41
REMARK   17  A    between atoms: _41  and  _42
REMARK   18  A    between atoms: _41  and  _44
REMARK   19  A    between atoms: _44  and  _45
REMARK   20  A    between atoms: _48  and  _50
REMARK   21  A    between atoms: _50  and  _51
REMARK   22  A    between atoms: _53  and  _55
REMARK   23  A    between atoms: _55  and  _56
REMARK   24  A    between atoms: _55  and  _58
REMARK   25  A    between atoms: _58  and  _59
REMARK   26  A    between atoms: _64  and  _66
REMARK   27  A    between atoms: _66  and  _67
REMARK   28  A    between atoms: _66  and  _69
REMARK   29  A    between atoms: _69  and  _70
REMARK   30  A    between atoms: _73  and  _75
REMARK   31  A    between atoms: _75  and  _76
REMARK   32  A    between atoms: _75  and  _78
REMARK   33  A    between atoms: _78  and  _79
REMARK   34  A    between atoms: _84  and  _85
REMARK   35  A    between atoms: _87  and  _89
REMARK   36  A    between atoms: _89  and  _90
REMARK   37  A    between atoms: _89  and  _92
REMARK   38  A    between atoms: _92  and  _93
REMARK   39  A    between atoms: _98  and  _100
REMARK   40  A    between atoms: _100  and  _101
REMARK   41  A    between atoms: _100  and  _103
REMARK   42  A    between atoms: _103  and  _104
REMARK   43  A    between atoms: _107  and  _109
REMARK   44  A    between atoms: _109  and  _110
REMARK   45  A    between atoms: _109  and  _112
REMARK   46  A    between atoms: _112  and  _113
REMARK   47  A    between atoms: _116  and  _118
REMARK   48  A    between atoms: _118  and  _119
REMARK   49  A    between atoms: _118  and  _121
REMARK   50  A    between atoms: _121  and  _122
REMARK   51  A    between atoms: _125  and  _127
REMARK   52  A    between atoms: _127  and  _128
REMARK   53  A    between atoms: _127  and  _130
REMARK   54  A    between atoms: _130  and  _131
REMARK   55  A    between atoms: _133  and  _135
REMARK   56  A    between atoms: _135  and  _136
REMARK   57  A    between atoms: _138  and  _140
REMARK   58  A    between atoms: _140  and  _141
REMARK   59  A    between atoms: _143  and  _145
REMARK   60  A    between atoms: _145  and  _146
REMARK   61  A    between atoms: _145  and  _148
REMARK   62  A    between atoms: _148  and  _149
REMARK   63  A    between atoms: _154  and  _155
REMARK   64  A    between atoms: _157  and  _159
REMARK   65  A    between atoms: _159  and  _160
REMARK   66  A    between atoms: _159  and  _162
REMARK   67  A    between atoms: _162  and  _163
REMARK   68  A    between atoms: _163  and  _164
REMARK   69  A    between atoms: _169  and  _171
REMARK   70  A    between atoms: _171  and  _172
REMARK   71  A    between atoms: _171  and  _174
REMARK   72  A    between atoms: _174  and  _175
REMARK   73  A    between atoms: _178  and  _180
REMARK   74  A    between atoms: _180  and  _181
REMARK   75  A    between atoms: _180  and  _183
REMARK   76  A    between atoms: _183  and  _184
REMARK   77  A    between atoms: _184  and  _185
REMARK   78  A    between atoms: _190  and  _192
REMARK   79  A    between atoms: _192  and  _193
REMARK   80  A    between atoms: _192  and  _195
REMARK   81  A    between atoms: _195  and  _196
REMARK   82  A    between atoms: _199  and  _201
REMARK   83  A    between atoms: _201  and  _202
REMARK   84  A    between atoms: _201  and  _204
REMARK   85  A    between atoms: _204  and  _205
REMARK   86  A    between atoms: _205  and  _206
REMARK   87  A    between atoms: _208  and  _210
REMARK   88  A    between atoms: _210  and  _211
REMARK   89  A    between atoms: _214  and  _216
REMARK   90  A    between atoms: _216  and  _217
REMARK   91  A    between atoms: _216  and  _219
REMARK   92  A    between atoms: _219  and  _220
REMARK   93  A    between atoms: _226  and  _228
REMARK   94  A    between atoms: _228  and  _229
REMARK   95  A    between atoms: _228  and  _231
REMARK   96  A    between atoms: _231  and  _232
REMARK   97  A    between atoms: _235  and  _237
REMARK   98  A    between atoms: _237  and  _238
REMARK   99  A    between atoms: _237  and  _240
REMARK  100  A    between atoms: _240  and  _241
REMARK  101  A    between atoms: _241  and  _242
REMARK  102  A    between atoms: _245  and  _247
REMARK  103  A    between atoms: _247  and  _248
REMARK  104  A    between atoms: _247  and  _250
REMARK  105  A    between atoms: _252  and  _254
REMARK  106  A    between atoms: _254  and  _255
REMARK  107  A    between atoms: _254  and  _257
REMARK  108  A    between atoms: _257  and  _258
REMARK  109  A    between atoms: _261  and  _263
REMARK  110  A    between atoms: _263  and  _264
REMARK  111  A    between atoms: _263  and  _266
REMARK  112  A    between atoms: _266  and  _267
REMARK  113  A    between atoms: _269  and  _271
REMARK  114  A    between atoms: _271  and  _272
REMARK  115  A    between atoms: _271  and  _274
REMARK  116  A    between atoms: _274  and  _275
REMARK  117  A    between atoms: _278  and  _280
REMARK  118  A    between atoms: _280  and  _281
REMARK  119  A    between atoms: _280  and  _283
REMARK  120  A    between atoms: _283  and  _284
REMARK  121  A    between atoms: _284  and  _285
REMARK  122  A    between atoms: _290  and  _292
REMARK  123  A    between atoms: _292  and  _293
REMARK  124  A    between atoms: _292  and  _295
REMARK  125  A    between atoms: _295  and  _296
REMARK  126  A    between atoms: _296  and  _297
REMARK  127  A    between atoms: _302  and  _304
REMARK  128  A    between atoms: _304  and  _305
REMARK  129  A    between atoms: _307  and  _309
REMARK  130  A    between atoms: _309  and  _310
REMARK  131  A    between atoms: _309  and  _312
REMARK  132  A    between atoms: _312  and  _313
REMARK  133  A    between atoms: _315  and  _317
REMARK  134  A    between atoms: _317  and  _318
REMARK  135  A    between atoms: _317  and  _320
REMARK  136  A    between atoms: _320  and  _321
REMARK  137  A    between atoms: _321  and  _322
REMARK  138  A    between atoms: _322  and  _323
REMARK  139  A    between atoms: _332  and  _334
REMARK  140  A    between atoms: _334  and  _335
REMARK  141  A    between atoms: _338  and  _340
REMARK  142  A    between atoms: _340  and  _341
REMARK  143  A    between atoms: _340  and  _343
REMARK  144  A    between atoms: _346  and  _348
REMARK  145  A    between atoms: _348  and  _349
REMARK  146  A    between atoms: _351  and  _353
REMARK  147  A    between atoms: _353  and  _354
REMARK  148  A    between atoms: _356  and  _358
REMARK  149  A    between atoms: _358  and  _359
REMARK  150  A    between atoms: _358  and  _361
REMARK  151  A    between atoms: _361  and  _362
REMARK  152  A    between atoms: _365  and  _367
REMARK  153  A    between atoms: _367  and  _368
REMARK  154  A    between atoms: _371  and  _373
REMARK  155  A    between atoms: _373  and  _374
REMARK  156  A    between atoms: _373  and  _376
REMARK  157  A    between atoms: _379  and  _381
REMARK  158  A    between atoms: _381  and  _382
REMARK  159  A    between atoms: _384  and  _386
REMARK  160  A    between atoms: _386  and  _387
REMARK  161  A    between atoms: _386  and  _389
REMARK  162  A    between atoms: _389  and  _390
REMARK  163  A    between atoms: _390  and  _391
REMARK  164  A    between atoms: _394  and  _396
REMARK  165  A    between atoms: _396  and  _397
REMARK  166  A    between atoms: _396  and  _399
REMARK  167  A    between atoms: _399  and  _400
REMARK  168  A    between atoms: _405  and  _406
REMARK  169  A    between atoms: _408  and  _410
REMARK  170  A    between atoms: _410  and  _411
REMARK  171  A    between atoms: _410  and  _413
REMARK  172  A    between atoms: _413  and  _414
REMARK  173  A    between atoms: _417  and  _419
REMARK  174  A    between atoms: _419  and  _420
REMARK  175  A    between atoms: _419  and  _422
REMARK  176  A    between atoms: _422  and  _423
REMARK  177  A    between atoms: _423  and  _424
REMARK  178  A    between atoms: _426  and  _428
REMARK  179  A    between atoms: _428  and  _429
REMARK  180  A    between atoms: _431  and  _433
REMARK  181  A    between atoms: _433  and  _434
REMARK  182  A    between atoms: _433  and  _436
REMARK  183  A    between atoms: _439  and  _441
REMARK  184  A    between atoms: _441  and  _442
REMARK  185  A    between atoms: _444  and  _446
REMARK  186  A    between atoms: _446  and  _447
REMARK  187  A    between atoms: _446  and  _449
REMARK  188  A    between atoms: _449  and  _450
REMARK  189  A    between atoms: _456  and  _458
REMARK  190  A    between atoms: _458  and  _459
REMARK  191  A    between atoms: _458  and  _461
REMARK  192  A    between atoms: _461  and  _462
REMARK  193  A    between atoms: _465  and  _467
REMARK  194  A    between atoms: _467  and  _468
REMARK  195  A    between atoms: _467  and  _470
REMARK  196  A    between atoms: _472  and  _474
REMARK  197  A    between atoms: _474  and  _475
REMARK  198  A    between atoms: _474  and  _477
REMARK  199  A    between atoms: _480  and  _482
REMARK  200  A    between atoms: _482  and  _483
REMARK  201  A    between atoms: _482  and  _485
REMARK  202  A    between atoms: _485  and  _486
REMARK  203  A    between atoms: _489  and  _491
REMARK  204  A    between atoms: _491  and  _492
REMARK  205  A    between atoms: _491  and  _494
REMARK  206  A    between atoms: _494  and  _495
REMARK  207  A    between atoms: _498  and  _500
REMARK  208  A    between atoms: _500  and  _501
REMARK  209  A    between atoms: _500  and  _503
REMARK  210  A    between atoms: _503  and  _504
REMARK  211  A    between atoms: _504  and  _505
REMARK  212  A    between atoms: _505  and  _506
REMARK                            x       y       z     vdW  Elec       q    Type
REMARK                         _______ _______ _______ _____ _____    ______ ____
ROOT
ATOM      1  O   HOH     1      97.514   9.391  12.898  0.00  0.00    +0.000 OA
ENDROOT
TORSDOF 0
REMARK  Name = ../refined-set-2016/4kwo/4kwo_pocket.pdb
REMARK  212 active torsions:
REMARK  status: ('A' for Active; 'I' for Inactive)
REMARK    1  A    between atoms: _1  and  _3
REMARK    2  A    between atoms: _3  and  _4
REMARK    3  A    between atoms: _3  and  _6
REMARK    4  A    between atoms: _6  and  _7
REMARK    5  A    between atoms: _7  and  _8
REMARK    6  A    between atoms: _11  and  _12
REMARK    7  A    between atoms: _17  and  _19
REMARK    8  A    between atoms: _19  and  _20
REMARK    9  A    between atoms: _19  and  _22
REMARK   10  A    between atoms: _25  and  _27
REMARK   11  A    between atoms: _27  and  _28
REMARK   12  A    between atoms: _30  and  _32
REMARK   13  A    between atoms: _32  and  _33
REMARK   14  A    between atoms: _32  and  _35
REMARK   15  A    between atoms: _35  and  _36
REMARK   16  A    between atoms: _39  and  _41
REMARK   17  A    between atoms: _41  and  _42
REMARK   18  A    between atoms: _41  and  _44
REMARK   19  A    between atoms: _44  and  _45
REMARK   20  A    between atoms: _48  and  _50
REMARK   21  A    between atoms: _50  and  _51
REMARK   22  A    between atoms: _53  and  _55
REMARK   23  A    between atoms: _55  and  _56
REMARK   24  A    between atoms: _55  and  _58
REMARK   25  A    between atoms: _58  and  _59
REMARK   26  A    between atoms: _64  and  _66
REMARK   27  A    between atoms: _66  and  _67
REMARK   28  A    between atoms: _66  and  _69
REMARK   29  A    between atoms: _69  and  _70
REMARK   30  A    between atoms: _73  and  _75
REMARK   31  A    between atoms: _75  and  _76
REMARK   32  A    between atoms: _75  and  _78
REMARK   33  A    between atoms: _78  and  _79
REMARK   34  A    between atoms: _84  and  _85
REMARK   35  A    between atoms: _87  and  _89
REMARK   36  A    between atoms: _89  and  _90
REMARK   37  A    between atoms: _89  and  _92
REMARK   38  A    between atoms: _92  and  _93
REMARK   39  A    between atoms: _98  and  _100
REMARK   40  A    between atoms: _100  and  _101
REMARK   41  A    between atoms: _100  and  _103
REMARK   42  A    between atoms: _103  and  _104
REMARK   43  A    between atoms: _107  and  _109
REMARK   44  A    between atoms: _109  and  _110
REMARK   45  A    between atoms: _109  and  _112
REMARK   46  A    between atoms: _112  and  _113
REMARK   47  A    between atoms: _116  and  _118
REMARK   48  A    between atoms: _118  and  _119
REMARK   49  A    between atoms: _118  and  _121
REMARK   50  A    between atoms: _121  and  _122
REMARK   51  A    between atoms: _125  and  _127
REMARK   52  A    between atoms: _127  and  _128
REMARK   53  A    between atoms: _127  and  _130
REMARK   54  A    between atoms: _130  and  _131
REMARK   55  A    between atoms: _133  and  _135
REMARK   56  A    between atoms: _135  and  _136
REMARK   57  A    between atoms: _138  and  _140
REMARK   58  A    between atoms: _140  and  _141
REMARK   59  A    between atoms: _143  and  _145
REMARK   60  A    between atoms: _145  and  _146
REMARK   61  A    between atoms: _145  and  _148
REMARK   62  A    between atoms: _148  and  _149
REMARK   63  A    between atoms: _154  and  _155
REMARK   64  A    between atoms: _157  and  _159
REMARK   65  A    between atoms: _159  and  _160
REMARK   66  A    between atoms: _159  and  _162
REMARK   67  A    between atoms: _162  and  _163
REMARK   68  A    between atoms: _163  and  _164
REMARK   69  A    between atoms: _169  and  _171
REMARK   70  A    between atoms: _171  and  _172
REMARK   71  A    between atoms: _171  and  _174
REMARK   72  A    between atoms: _174  and  _175
REMARK   73  A    between atoms: _178  and  _180
REMARK   74  A    between atoms: _180  and  _181
REMARK   75  A    between atoms: _180  and  _183
REMARK   76  A    between atoms: _183  and  _184
REMARK   77  A    between atoms: _184  and  _185
REMARK   78  A    between atoms: _190  and  _192
REMARK   79  A    between atoms: _192  and  _193
REMARK   80  A    between atoms: _192  and  _195
REMARK   81  A    between atoms: _195  and  _196
REMARK   82  A    between atoms: _199  and  _201
REMARK   83  A    between atoms: _201  and  _202
REMARK   84  A    between atoms: _201  and  _204
REMARK   85  A    between atoms: _204  and  _205
REMARK   86  A    between atoms: _205  and  _206
REMARK   87  A    between atoms: _208  and  _210
REMARK   88  A    between atoms: _210  and  _211
REMARK   89  A    between atoms: _214  and  _216
REMARK   90  A    between atoms: _216  and  _217
REMARK   91  A    between atoms: _216  and  _219
REMARK   92  A    between atoms: _219  and  _220
REMARK   93  A    between atoms: _226  and  _228
REMARK   94  A    between atoms: _228  and  _229
REMARK   95  A    between atoms: _228  and  _231
REMARK   96  A    between atoms: _231  and  _232
REMARK   97  A    between atoms: _235  and  _237
REMARK   98  A    between atoms: _237  and  _238
REMARK   99  A    between atoms: _237  and  _240
REMARK  100  A    between atoms: _240  and  _241
REMARK  101  A    between atoms: _241  and  _242
REMARK  102  A    between atoms: _245  and  _247
REMARK  103  A    between atoms: _247  and  _248
REMARK  104  A    between atoms: _247  and  _250
REMARK  105  A    between atoms: _252  and  _254
REMARK  106  A    between atoms: _254  and  _255
REMARK  107  A    between atoms: _254  and  _257
REMARK  108  A    between atoms: _257  and  _258
REMARK  109  A    between atoms: _261  and  _263
REMARK  110  A    between atoms: _263  and  _264
REMARK  111  A    between atoms: _263  and  _266
REMARK  112  A    between atoms: _266  and  _267
REMARK  113  A    between atoms: _269  and  _271
REMARK  114  A    between atoms: _271  and  _272
REMARK  115  A    between atoms: _271  and  _274
REMARK  116  A    between atoms: _274  and  _275
REMARK  117  A    between atoms: _278  and  _280
REMARK  118  A    between atoms: _280  and  _281
REMARK  119  A    between atoms: _280  and  _283
REMARK  120  A    between atoms: _283  and  _284
REMARK  121  A    between atoms: _284  and  _285
REMARK  122  A    between atoms: _290  and  _292
REMARK  123  A    between atoms: _292  and  _293
REMARK  124  A    between atoms: _292  and  _295
REMARK  125  A    between atoms: _295  and  _296
REMARK  126  A    between atoms: _296  and  _297
REMARK  127  A    between atoms: _302  and  _304
REMARK  128  A    between atoms: _304  and  _305
REMARK  129  A    between atoms: _307  and  _309
REMARK  130  A    between atoms: _309  and  _310
REMARK  131  A    between atoms: _309  and  _312
REMARK  132  A    between atoms: _312  and  _313
REMARK  133  A    between atoms: _315  and  _317
REMARK  134  A    between atoms: _317  and  _318
REMARK  135  A    between atoms: _317  and  _320
REMARK  136  A    between atoms: _320  and  _321
REMARK  137  A    between atoms: _321  and  _322
REMARK  138  A    between atoms: _322  and  _323
REMARK  139  A    between atoms: _332  and  _334
REMARK  140  A    between atoms: _334  and  _335
REMARK  141  A    between atoms: _338  and  _340
REMARK  142  A    between atoms: _340  and  _341
REMARK  143  A    between atoms: _340  and  _343
REMARK  144  A    between atoms: _346  and  _348
REMARK  145  A    between atoms: _348  and  _349
REMARK  146  A    between atoms: _351  and  _353
REMARK  147  A    between atoms: _353  and  _354
REMARK  148  A    between atoms: _356  and  _358
REMARK  149  A    between atoms: _358  and  _359
REMARK  150  A    between atoms: _358  and  _361
REMARK  151  A    between atoms: _361  and  _362
REMARK  152  A    between atoms: _365  and  _367
REMARK  153  A    between atoms: _367  and  _368
REMARK  154  A    between atoms: _371  and  _373
REMARK  155  A    between atoms: _373  and  _374
REMARK  156  A    between atoms: _373  and  _376
REMARK  157  A    between atoms: _379  and  _381
REMARK  158  A    between atoms: _381  and  _382
REMARK  159  A    between atoms: _384  and  _386
REMARK  160  A    between atoms: _386  and  _387
REMARK  161  A    between atoms: _386  and  _389
REMARK  162  A    between atoms: _389  and  _390
REMARK  163  A    between atoms: _390  and  _391
REMARK  164  A    between atoms: _394  and  _396
REMARK  165  A    between atoms: _396  and  _397
REMARK  166  A    between atoms: _396  and  _399
REMARK  167  A    between atoms: _399  and  _400
REMARK  168  A    between atoms: _405  and  _406
REMARK  169  A    between atoms: _408  and  _410
REMARK  170  A    between atoms: _410  and  _411
REMARK  171  A    between atoms: _410  and  _413
REMARK  172  A    between atoms: _413  and  _414
REMARK  173  A    between atoms: _417  and  _419
REMARK  174  A    between atoms: _419  and  _420
REMARK  175  A    between atoms: _419  and  _422
REMARK  176  A    between atoms: _422  and  _423
REMARK  177  A    between atoms: _423  and  _424
REMARK  178  A    between atoms: _426  and  _428
REMARK  179  A    between atoms: _428  and  _429
REMARK  180  A    between atoms: _431  and  _433
REMARK  181  A    between atoms: _433  and  _434
REMARK  182  A    between atoms: _433  and  _436
REMARK  183  A    between atoms: _439  and  _441
REMARK  184  A    between atoms: _441  and  _442
REMARK  185  A    between atoms: _444  and  _446
REMARK  186  A    between atoms: _446  and  _447
REMARK  187  A    between atoms: _446  and  _449
REMARK  188  A    between atoms: _449  and  _450
REMARK  189  A    between atoms: _456  and  _458
REMARK  190  A    between atoms: _458  and  _459
REMARK  191  A    between atoms: _458  and  _461
REMARK  192  A    between atoms: _461  and  _462
REMARK  193  A    between atoms: _465  and  _467
REMARK  194  A    between atoms: _467  and  _468
REMARK  195  A    between atoms: _467  and  _470
REMARK  196  A    between atoms: _472  and  _474
REMARK  197  A    between atoms: _474  and  _475
REMARK  198  A    between atoms: _474  and  _477
REMARK  199  A    between atoms: _480  and  _482
REMARK  200  A    between atoms: _482  and  _483
REMARK  201  A    between atoms: _482  and  _485
REMARK  202  A    between atoms: _485  and  _486
REMARK  203  A    between atoms: _489  and  _491
REMARK  204  A    between atoms: _491  and  _492
REMARK  205  A    between atoms: _491  and  _494
REMARK  206  A    between atoms: _494  and  _495
REMARK  207  A    between atoms: _498  and  _500
REMARK  208  A    between atoms: _500  and  _501
REMARK  209  A    between atoms: _500  and  _503
REMARK  210  A    between atoms: _503  and  _504
REMARK  211  A    between atoms: _504  and  _505
REMARK  212  A    between atoms: _505  and  _506
REMARK                            x       y       z     vdW  Elec       q    Type
REMARK                         _______ _______ _______ _____ _____    ______ ____
ROOT
ATOM      1  O   HOH     1      99.518  14.376  15.669  0.00  0.00    +0.000 OA
ENDROOT
TORSDOF 0
REMARK  Name = ../refined-set-2016/4kwo/4kwo_pocket.pdb
REMARK  212 active torsions:
REMARK  status: ('A' for Active; 'I' for Inactive)
REMARK    1  A    between atoms: _1  and  _3
REMARK    2  A    between atoms: _3  and  _4
REMARK    3  A    between atoms: _3  and  _6
REMARK    4  A    between atoms: _6  and  _7
REMARK    5  A    between atoms: _7  and  _8
REMARK    6  A    between atoms: _11  and  _12
REMARK    7  A    between atoms: _17  and  _19
REMARK    8  A    between atoms: _19  and  _20
REMARK    9  A    between atoms: _19  and  _22
REMARK   10  A    between atoms: _25  and  _27
REMARK   11  A    between atoms: _27  and  _28
REMARK   12  A    between atoms: _30  and  _32
REMARK   13  A    between atoms: _32  and  _33
REMARK   14  A    between atoms: _32  and  _35
REMARK   15  A    between atoms: _35  and  _36
REMARK   16  A    between atoms: _39  and  _41
REMARK   17  A    between atoms: _41  and  _42
REMARK   18  A    between atoms: _41  and  _44
REMARK   19  A    between atoms: _44  and  _45
REMARK   20  A    between atoms: _48  and  _50
REMARK   21  A    between atoms: _50  and  _51
REMARK   22  A    between atoms: _53  and  _55
REMARK   23  A    between atoms: _55  and  _56
REMARK   24  A    between atoms: _55  and  _58
REMARK   25  A    between atoms: _58  and  _59
REMARK   26  A    between atoms: _64  and  _66
REMARK   27  A    between atoms: _66  and  _67
REMARK   28  A    between atoms: _66  and  _69
REMARK   29  A    between atoms: _69  and  _70
REMARK   30  A    between atoms: _73  and  _75
REMARK   31  A    between atoms: _75  and  _76
REMARK   32  A    between atoms: _75  and  _78
REMARK   33  A    between atoms: _78  and  _79
REMARK   34  A    between atoms: _84  and  _85
REMARK   35  A    between atoms: _87  and  _89
REMARK   36  A    between atoms: _89  and  _90
REMARK   37  A    between atoms: _89  and  _92
REMARK   38  A    between atoms: _92  and  _93
REMARK   39  A    between atoms: _98  and  _100
REMARK   40  A    between atoms: _100  and  _101
REMARK   41  A    between atoms: _100  and  _103
REMARK   42  A    between atoms: _103  and  _104
REMARK   43  A    between atoms: _107  and  _109
REMARK   44  A    between atoms: _109  and  _110
REMARK   45  A    between atoms: _109  and  _112
REMARK   46  A    between atoms: _112  and  _113
REMARK   47  A    between atoms: _116  and  _118
REMARK   48  A    between atoms: _118  and  _119
REMARK   49  A    between atoms: _118  and  _121
REMARK   50  A    between atoms: _121  and  _122
REMARK   51  A    between atoms: _125  and  _127
REMARK   52  A    between atoms: _127  and  _128
REMARK   53  A    between atoms: _127  and  _130
REMARK   54  A    between atoms: _130  and  _131
REMARK   55  A    between atoms: _133  and  _135
REMARK   56  A    between atoms: _135  and  _136
REMARK   57  A    between atoms: _138  and  _140
REMARK   58  A    between atoms: _140  and  _141
REMARK   59  A    between atoms: _143  and  _145
REMARK   60  A    between atoms: _145  and  _146
REMARK   61  A    between atoms: _145  and  _148
REMARK   62  A    between atoms: _148  and  _149
REMARK   63  A    between atoms: _154  and  _155
REMARK   64  A    between atoms: _157  and  _159
REMARK   65  A    between atoms: _159  and  _160
REMARK   66  A    between atoms: _159  and  _162
REMARK   67  A    between atoms: _162  and  _163
REMARK   68  A    between atoms: _163  and  _164
REMARK   69  A    between atoms: _169  and  _171
REMARK   70  A    between atoms: _171  and  _172
REMARK   71  A    between atoms: _171  and  _174
REMARK   72  A    between atoms: _174  and  _175
REMARK   73  A    between atoms: _178  and  _180
REMARK   74  A    between atoms: _180  and  _181
REMARK   75  A    between atoms: _180  and  _183
REMARK   76  A    between atoms: _183  and  _184
REMARK   77  A    between atoms: _184  and  _185
REMARK   78  A    between atoms: _190  and  _192
REMARK   79  A    between atoms: _192  and  _193
REMARK   80  A    between atoms: _192  and  _195
REMARK   81  A    between atoms: _195  and  _196
REMARK   82  A    between atoms: _199  and  _201
REMARK   83  A    between atoms: _201  and  _202
REMARK   84  A    between atoms: _201  and  _204
REMARK   85  A    between atoms: _204  and  _205
REMARK   86  A    between atoms: _205  and  _206
REMARK   87  A    between atoms: _208  and  _210
REMARK   88  A    between atoms: _210  and  _211
REMARK   89  A    between atoms: _214  and  _216
REMARK   90  A    between atoms: _216  and  _217
REMARK   91  A    between atoms: _216  and  _219
REMARK   92  A    between atoms: _219  and  _220
REMARK   93  A    between atoms: _226  and  _228
REMARK   94  A    between atoms: _228  and  _229
REMARK   95  A    between atoms: _228  and  _231
REMARK   96  A    between atoms: _231  and  _232
REMARK   97  A    between atoms: _235  and  _237
REMARK   98  A    between atoms: _237  and  _238
REMARK   99  A    between atoms: _237  and  _240
REMARK  100  A    between atoms: _240  and  _241
REMARK  101  A    between atoms: _241  and  _242
REMARK  102  A    between atoms: _245  and  _247
REMARK  103  A    between atoms: _247  and  _248
REMARK  104  A    between atoms: _247  and  _250
REMARK  105  A    between atoms: _252  and  _254
REMARK  106  A    between atoms: _254  and  _255
REMARK  107  A    between atoms: _254  and  _257
REMARK  108  A    between atoms: _257  and  _258
REMARK  109  A    between atoms: _261  and  _263
REMARK  110  A    between atoms: _263  and  _264
REMARK  111  A    between atoms: _263  and  _266
REMARK  112  A    between atoms: _266  and  _267
REMARK  113  A    between atoms: _269  and  _271
REMARK  114  A    between atoms: _271  and  _272
REMARK  115  A    between atoms: _271  and  _274
REMARK  116  A    between atoms: _274  and  _275
REMARK  117  A    between atoms: _278  and  _280
REMARK  118  A    between atoms: _280  and  _281
REMARK  119  A    between atoms: _280  and  _283
REMARK  120  A    between atoms: _283  and  _284
REMARK  121  A    between atoms: _284  and  _285
REMARK  122  A    between atoms: _290  and  _292
REMARK  123  A    between atoms: _292  and  _293
REMARK  124  A    between atoms: _292  and  _295
REMARK  125  A    between atoms: _295  and  _296
REMARK  126  A    between atoms: _296  and  _297
REMARK  127  A    between atoms: _302  and  _304
REMARK  128  A    between atoms: _304  and  _305
REMARK  129  A    between atoms: _307  and  _309
REMARK  130  A    between atoms: _309  and  _310
REMARK  131  A    between atoms: _309  and  _312
REMARK  132  A    between atoms: _312  and  _313
REMARK  133  A    between atoms: _315  and  _317
REMARK  134  A    between atoms: _317  and  _318
REMARK  135  A    between atoms: _317  and  _320
REMARK  136  A    between atoms: _320  and  _321
REMARK  137  A    between atoms: _321  and  _322
REMARK  138  A    between atoms: _322  and  _323
REMARK  139  A    between atoms: _332  and  _334
REMARK  140  A    between atoms: _334  and  _335
REMARK  141  A    between atoms: _338  and  _340
REMARK  142  A    between atoms: _340  and  _341
REMARK  143  A    between atoms: _340  and  _343
REMARK  144  A    between atoms: _346  and  _348
REMARK  145  A    between atoms: _348  and  _349
REMARK  146  A    between atoms: _351  and  _353
REMARK  147  A    between atoms: _353  and  _354
REMARK  148  A    between atoms: _356  and  _358
REMARK  149  A    between atoms: _358  and  _359
REMARK  150  A    between atoms: _358  and  _361
REMARK  151  A    between atoms: _361  and  _362
REMARK  152  A    between atoms: _365  and  _367
REMARK  153  A    between atoms: _367  and  _368
REMARK  154  A    between atoms: _371  and  _373
REMARK  155  A    between atoms: _373  and  _374
REMARK  156  A    between atoms: _373  and  _376
REMARK  157  A    between atoms: _379  and  _381
REMARK  158  A    between atoms: _381  and  _382
REMARK  159  A    between atoms: _384  and  _386
REMARK  160  A    between atoms: _386  and  _387
REMARK  161  A    between atoms: _386  and  _389
REMARK  162  A    between atoms: _389  and  _390
REMARK  163  A    between atoms: _390  and  _391
REMARK  164  A    between atoms: _394  and  _396
REMARK  165  A    between atoms: _396  and  _397
REMARK  166  A    between atoms: _396  and  _399
REMARK  167  A    between atoms: _399  and  _400
REMARK  168  A    between atoms: _405  and  _406
REMARK  169  A    between atoms: _408  and  _410
REMARK  170  A    between atoms: _410  and  _411
REMARK  171  A    between atoms: _410  and  _413
REMARK  172  A    between atoms: _413  and  _414
REMARK  173  A    between atoms: _417  and  _419
REMARK  174  A    between atoms: _419  and  _420
REMARK  175  A    between atoms: _419  and  _422
REMARK  176  A    between atoms: _422  and  _423
REMARK  177  A    between atoms: _423  and  _424
REMARK  178  A    between atoms: _426  and  _428
REMARK  179  A    between atoms: _428  and  _429
REMARK  180  A    between atoms: _431  and  _433
REMARK  181  A    between atoms: _433  and  _434
REMARK  182  A    between atoms: _433  and  _436
REMARK  183  A    between atoms: _439  and  _441
REMARK  184  A    between atoms: _441  and  _442
REMARK  185  A    between atoms: _444  and  _446
REMARK  186  A    between atoms: _446  and  _447
REMARK  187  A    between atoms: _446  and  _449
REMARK  188  A    between atoms: _449  and  _450
REMARK  189  A    between atoms: _456  and  _458
REMARK  190  A    between atoms: _458  and  _459
REMARK  191  A    between atoms: _458  and  _461
REMARK  192  A    between atoms: _461  and  _462
REMARK  193  A    between atoms: _465  and  _467
REMARK  194  A    between atoms: _467  and  _468
REMARK  195  A    between atoms: _467  and  _470
REMARK  196  A    between atoms: _472  and  _474
REMARK  197  A    between atoms: _474  and  _475
REMARK  198  A    between atoms: _474  and  _477
REMARK  199  A    between atoms: _480  and  _482
REMARK  200  A    between atoms: _482  and  _483
REMARK  201  A    between atoms: _482  and  _485
REMARK  202  A    between atoms: _485  and  _486
REMARK  203  A    between atoms: _489  and  _491
REMARK  204  A    between atoms: _491  and  _492
REMARK  205  A    between atoms: _491  and  _494
REMARK  206  A    between atoms: _494  and  _495
REMARK  207  A    between atoms: _498  and  _500
REMARK  208  A    between atoms: _500  and  _501
REMARK  209  A    between atoms: _500  and  _503
REMARK  210  A    between atoms: _503  and  _504
REMARK  211  A    between atoms: _504  and  _505
REMARK  212  A    between atoms: _505  and  _506
REMARK                            x       y       z     vdW  Elec       q    Type
REMARK                         _______ _______ _______ _____ _____    ______ ____
ROOT
ATOM      1  O   HOH     1      99.566  20.690  15.469  0.00  0.00    +0.000 OA
ENDROOT
TORSDOF 0
REMARK  Name = ../refined-set-2016/4kwo/4kwo_pocket.pdb
REMARK  212 active torsions:
REMARK  status: ('A' for Active; 'I' for Inactive)
REMARK    1  A    between atoms: _1  and  _3
REMARK    2  A    between atoms: _3  and  _4
REMARK    3  A    between atoms: _3  and  _6
REMARK    4  A    between atoms: _6  and  _7
REMARK    5  A    between atoms: _7  and  _8
REMARK    6  A    between atoms: _11  and  _12
REMARK    7  A    between atoms: _17  and  _19
REMARK    8  A    between atoms: _19  and  _20
REMARK    9  A    between atoms: _19  and  _22
REMARK   10  A    between atoms: _25  and  _27
REMARK   11  A    between atoms: _27  and  _28
REMARK   12  A    between atoms: _30  and  _32
REMARK   13  A    between atoms: _32  and  _33
REMARK   14  A    between atoms: _32  and  _35
REMARK   15  A    between atoms: _35  and  _36
REMARK   16  A    between atoms: _39  and  _41
REMARK   17  A    between atoms: _41  and  _42
REMARK   18  A    between atoms: _41  and  _44
REMARK   19  A    between atoms: _44  and  _45
REMARK   20  A    between atoms: _48  and  _50
REMARK   21  A    between atoms: _50  and  _51
REMARK   22  A    between atoms: _53  and  _55
REMARK   23  A    between atoms: _55  and  _56
REMARK   24  A    between atoms: _55  and  _58
REMARK   25  A    between atoms: _58  and  _59
REMARK   26  A    between atoms: _64  and  _66
REMARK   27  A    between atoms: _66  and  _67
REMARK   28  A    between atoms: _66  and  _69
REMARK   29  A    between atoms: _69  and  _70
REMARK   30  A    between atoms: _73  and  _75
REMARK   31  A    between atoms: _75  and  _76
REMARK   32  A    between atoms: _75  and  _78
REMARK   33  A    between atoms: _78  and  _79
REMARK   34  A    between atoms: _84  and  _85
REMARK   35  A    between atoms: _87  and  _89
REMARK   36  A    between atoms: _89  and  _90
REMARK   37  A    between atoms: _89  and  _92
REMARK   38  A    between atoms: _92  and  _93
REMARK   39  A    between atoms: _98  and  _100
REMARK   40  A    between atoms: _100  and  _101
REMARK   41  A    between atoms: _100  and  _103
REMARK   42  A    between atoms: _103  and  _104
REMARK   43  A    between atoms: _107  and  _109
REMARK   44  A    between atoms: _109  and  _110
REMARK   45  A    between atoms: _109  and  _112
REMARK   46  A    between atoms: _112  and  _113
REMARK   47  A    between atoms: _116  and  _118
REMARK   48  A    between atoms: _118  and  _119
REMARK   49  A    between atoms: _118  and  _121
REMARK   50  A    between atoms: _121  and  _122
REMARK   51  A    between atoms: _125  and  _127
REMARK   52  A    between atoms: _127  and  _128
REMARK   53  A    between atoms: _127  and  _130
REMARK   54  A    between atoms: _130  and  _131
REMARK   55  A    between atoms: _133  and  _135
REMARK   56  A    between atoms: _135  and  _136
REMARK   57  A    between atoms: _138  and  _140
REMARK   58  A    between atoms: _140  and  _141
REMARK   59  A    between atoms: _143  and  _145
REMARK   60  A    between atoms: _145  and  _146
REMARK   61  A    between atoms: _145  and  _148
REMARK   62  A    between atoms: _148  and  _149
REMARK   63  A    between atoms: _154  and  _155
REMARK   64  A    between atoms: _157  and  _159
REMARK   65  A    between atoms: _159  and  _160
REMARK   66  A    between atoms: _159  and  _162
REMARK   67  A    between atoms: _162  and  _163
REMARK   68  A    between atoms: _163  and  _164
REMARK   69  A    between atoms: _169  and  _171
REMARK   70  A    between atoms: _171  and  _172
REMARK   71  A    between atoms: _171  and  _174
REMARK   72  A    between atoms: _174  and  _175
REMARK   73  A    between atoms: _178  and  _180
REMARK   74  A    between atoms: _180  and  _181
REMARK   75  A    between atoms: _180  and  _183
REMARK   76  A    between atoms: _183  and  _184
REMARK   77  A    between atoms: _184  and  _185
REMARK   78  A    between atoms: _190  and  _192
REMARK   79  A    between atoms: _192  and  _193
REMARK   80  A    between atoms: _192  and  _195
REMARK   81  A    between atoms: _195  and  _196
REMARK   82  A    between atoms: _199  and  _201
REMARK   83  A    between atoms: _201  and  _202
REMARK   84  A    between atoms: _201  and  _204
REMARK   85  A    between atoms: _204  and  _205
REMARK   86  A    between atoms: _205  and  _206
REMARK   87  A    between atoms: _208  and  _210
REMARK   88  A    between atoms: _210  and  _211
REMARK   89  A    between atoms: _214  and  _216
REMARK   90  A    between atoms: _216  and  _217
REMARK   91  A    between atoms: _216  and  _219
REMARK   92  A    between atoms: _219  and  _220
REMARK   93  A    between atoms: _226  and  _228
REMARK   94  A    between atoms: _228  and  _229
REMARK   95  A    between atoms: _228  and  _231
REMARK   96  A    between atoms: _231  and  _232
REMARK   97  A    between atoms: _235  and  _237
REMARK   98  A    between atoms: _237  and  _238
REMARK   99  A    between atoms: _237  and  _240
REMARK  100  A    between atoms: _240  and  _241
REMARK  101  A    between atoms: _241  and  _242
REMARK  102  A    between atoms: _245  and  _247
REMARK  103  A    between atoms: _247  and  _248
REMARK  104  A    between atoms: _247  and  _250
REMARK  105  A    between atoms: _252  and  _254
REMARK  106  A    between atoms: _254  and  _255
REMARK  107  A    between atoms: _254  and  _257
REMARK  108  A    between atoms: _257  and  _258
REMARK  109  A    between atoms: _261  and  _263
REMARK  110  A    between atoms: _263  and  _264
REMARK  111  A    between atoms: _263  and  _266
REMARK  112  A    between atoms: _266  and  _267
REMARK  113  A    between atoms: _269  and  _271
REMARK  114  A    between atoms: _271  and  _272
REMARK  115  A    between atoms: _271  and  _274
REMARK  116  A    between atoms: _274  and  _275
REMARK  117  A    between atoms: _278  and  _280
REMARK  118  A    between atoms: _280  and  _281
REMARK  119  A    between atoms: _280  and  _283
REMARK  120  A    between atoms: _283  and  _284
REMARK  121  A    between atoms: _284  and  _285
REMARK  122  A    between atoms: _290  and  _292
REMARK  123  A    between atoms: _292  and  _293
REMARK  124  A    between atoms: _292  and  _295
REMARK  125  A    between atoms: _295  and  _296
REMARK  126  A    between atoms: _296  and  _297
REMARK  127  A    between atoms: _302  and  _304
REMARK  128  A    between atoms: _304  and  _305
REMARK  129  A    between atoms: _307  and  _309
REMARK  130  A    between atoms: _309  and  _310
REMARK  131  A    between atoms: _309  and  _312
REMARK  132  A    between atoms: _312  and  _313
REMARK  133  A    between atoms: _315  and  _317
REMARK  134  A    between atoms: _317  and  _318
REMARK  135  A    between atoms: _317  and  _320
REMARK  136  A    between atoms: _320  and  _321
REMARK  137  A    between atoms: _321  and  _322
REMARK  138  A    between atoms: _322  and  _323
REMARK  139  A    between atoms: _332  and  _334
REMARK  140  A    between atoms: _334  and  _335
REMARK  141  A    between atoms: _338  and  _340
REMARK  142  A    between atoms: _340  and  _341
REMARK  143  A    between atoms: _340  and  _343
REMARK  144  A    between atoms: _346  and  _348
REMARK  145  A    between atoms: _348  and  _349
REMARK  146  A    between atoms: _351  and  _353
REMARK  147  A    between atoms: _353  and  _354
REMARK  148  A    between atoms: _356  and  _358
REMARK  149  A    between atoms: _358  and  _359
REMARK  150  A    between atoms: _358  and  _361
REMARK  151  A    between atoms: _361  and  _362
REMARK  152  A    between atoms: _365  and  _367
REMARK  153  A    between atoms: _367  and  _368
REMARK  154  A    between atoms: _371  and  _373
REMARK  155  A    between atoms: _373  and  _374
REMARK  156  A    between atoms: _373  and  _376
REMARK  157  A    between atoms: _379  and  _381
REMARK  158  A    between atoms: _381  and  _382
REMARK  159  A    between atoms: _384  and  _386
REMARK  160  A    between atoms: _386  and  _387
REMARK  161  A    between atoms: _386  and  _389
REMARK  162  A    between atoms: _389  and  _390
REMARK  163  A    between atoms: _390  and  _391
REMARK  164  A    between atoms: _394  and  _396
REMARK  165  A    between atoms: _396  and  _397
REMARK  166  A    between atoms: _396  and  _399
REMARK  167  A    between atoms: _399  and  _400
REMARK  168  A    between atoms: _405  and  _406
REMARK  169  A    between atoms: _408  and  _410
REMARK  170  A    between atoms: _410  and  _411
REMARK  171  A    between atoms: _410  and  _413
REMARK  172  A    between atoms: _413  and  _414
REMARK  173  A    between atoms: _417  and  _419
REMARK  174  A    between atoms: _419  and  _420
REMARK  175  A    between atoms: _419  and  _422
REMARK  176  A    between atoms: _422  and  _423
REMARK  177  A    between atoms: _423  and  _424
REMARK  178  A    between atoms: _426  and  _428
REMARK  179  A    between atoms: _428  and  _429
REMARK  180  A    between atoms: _431  and  _433
REMARK  181  A    between atoms: _433  and  _434
REMARK  182  A    between atoms: _433  and  _436
REMARK  183  A    between atoms: _439  and  _441
REMARK  184  A    between atoms: _441  and  _442
REMARK  185  A    between atoms: _444  and  _446
REMARK  186  A    between atoms: _446  and  _447
REMARK  187  A    between atoms: _446  and  _449
REMARK  188  A    between atoms: _449  and  _450
REMARK  189  A    between atoms: _456  and  _458
REMARK  190  A    between atoms: _458  and  _459
REMARK  191  A    between atoms: _458  and  _461
REMARK  192  A    between atoms: _461  and  _462
REMARK  193  A    between atoms: _465  and  _467
REMARK  194  A    between atoms: _467  and  _468
REMARK  195  A    between atoms: _467  and  _470
REMARK  196  A    between atoms: _472  and  _474
REMARK  197  A    between atoms: _474  and  _475
REMARK  198  A    between atoms: _474  and  _477
REMARK  199  A    between atoms: _480  and  _482
REMARK  200  A    between atoms: _482  and  _483
REMARK  201  A    between atoms: _482  and  _485
REMARK  202  A    between atoms: _485  and  _486
REMARK  203  A    between atoms: _489  and  _491
REMARK  204  A    between atoms: _491  and  _492
REMARK  205  A    between atoms: _491  and  _494
REMARK  206  A    between atoms: _494  and  _495
REMARK  207  A    between atoms: _498  and  _500
REMARK  208  A    between atoms: _500  and  _501
REMARK  209  A    between atoms: _500  and  _503
REMARK  210  A    between atoms: _503  and  _504
REMARK  211  A    between atoms: _504  and  _505
REMARK  212  A    between atoms: _505  and  _506
REMARK                            x       y       z     vdW  Elec       q    Type
REMARK                         _______ _______ _______ _____ _____    ______ ____
ROOT
ATOM      1  O   HOH     1      96.543  11.455   9.019  0.00  0.00    +0.000 OA
ENDROOT
TORSDOF 0
REMARK  Name = ../refined-set-2016/4kwo/4kwo_pocket.pdb
REMARK  212 active torsions:
REMARK  status: ('A' for Active; 'I' for Inactive)
REMARK    1  A    between atoms: _1  and  _3
REMARK    2  A    between atoms: _3  and  _4
REMARK    3  A    between atoms: _3  and  _6
REMARK    4  A    between atoms: _6  and  _7
REMARK    5  A    between atoms: _7  and  _8
REMARK    6  A    between atoms: _11  and  _12
REMARK    7  A    between atoms: _17  and  _19
REMARK    8  A    between atoms: _19  and  _20
REMARK    9  A    between atoms: _19  and  _22
REMARK   10  A    between atoms: _25  and  _27
REMARK   11  A    between atoms: _27  and  _28
REMARK   12  A    between atoms: _30  and  _32
REMARK   13  A    between atoms: _32  and  _33
REMARK   14  A    between atoms: _32  and  _35
REMARK   15  A    between atoms: _35  and  _36
REMARK   16  A    between atoms: _39  and  _41
REMARK   17  A    between atoms: _41  and  _42
REMARK   18  A    between atoms: _41  and  _44
REMARK   19  A    between atoms: _44  and  _45
REMARK   20  A    between atoms: _48  and  _50
REMARK   21  A    between atoms: _50  and  _51
REMARK   22  A    between atoms: _53  and  _55
REMARK   23  A    between atoms: _55  and  _56
REMARK   24  A    between atoms: _55  and  _58
REMARK   25  A    between atoms: _58  and  _59
REMARK   26  A    between atoms: _64  and  _66
REMARK   27  A    between atoms: _66  and  _67
REMARK   28  A    between atoms: _66  and  _69
REMARK   29  A    between atoms: _69  and  _70
REMARK   30  A    between atoms: _73  and  _75
REMARK   31  A    between atoms: _75  and  _76
REMARK   32  A    between atoms: _75  and  _78
REMARK   33  A    between atoms: _78  and  _79
REMARK   34  A    between atoms: _84  and  _85
REMARK   35  A    between atoms: _87  and  _89
REMARK   36  A    between atoms: _89  and  _90
REMARK   37  A    between atoms: _89  and  _92
REMARK   38  A    between atoms: _92  and  _93
REMARK   39  A    between atoms: _98  and  _100
REMARK   40  A    between atoms: _100  and  _101
REMARK   41  A    between atoms: _100  and  _103
REMARK   42  A    between atoms: _103  and  _104
REMARK   43  A    between atoms: _107  and  _109
REMARK   44  A    between atoms: _109  and  _110
REMARK   45  A    between atoms: _109  and  _112
REMARK   46  A    between atoms: _112  and  _113
REMARK   47  A    between atoms: _116  and  _118
REMARK   48  A    between atoms: _118  and  _119
REMARK   49  A    between atoms: _118  and  _121
REMARK   50  A    between atoms: _121  and  _122
REMARK   51  A    between atoms: _125  and  _127
REMARK   52  A    between atoms: _127  and  _128
REMARK   53  A    between atoms: _127  and  _130
REMARK   54  A    between atoms: _130  and  _131
REMARK   55  A    between atoms: _133  and  _135
REMARK   56  A    between atoms: _135  and  _136
REMARK   57  A    between atoms: _138  and  _140
REMARK   58  A    between atoms: _140  and  _141
REMARK   59  A    between atoms: _143  and  _145
REMARK   60  A    between atoms: _145  and  _146
REMARK   61  A    between atoms: _145  and  _148
REMARK   62  A    between atoms: _148  and  _149
REMARK   63  A    between atoms: _154  and  _155
REMARK   64  A    between atoms: _157  and  _159
REMARK   65  A    between atoms: _159  and  _160
REMARK   66  A    between atoms: _159  and  _162
REMARK   67  A    between atoms: _162  and  _163
REMARK   68  A    between atoms: _163  and  _164
REMARK   69  A    between atoms: _169  and  _171
REMARK   70  A    between atoms: _171  and  _172
REMARK   71  A    between atoms: _171  and  _174
REMARK   72  A    between atoms: _174  and  _175
REMARK   73  A    between atoms: _178  and  _180
REMARK   74  A    between atoms: _180  and  _181
REMARK   75  A    between atoms: _180  and  _183
REMARK   76  A    between atoms: _183  and  _184
REMARK   77  A    between atoms: _184  and  _185
REMARK   78  A    between atoms: _190  and  _192
REMARK   79  A    between atoms: _192  and  _193
REMARK   80  A    between atoms: _192  and  _195
REMARK   81  A    between atoms: _195  and  _196
REMARK   82  A    between atoms: _199  and  _201
REMARK   83  A    between atoms: _201  and  _202
REMARK   84  A    between atoms: _201  and  _204
REMARK   85  A    between atoms: _204  and  _205
REMARK   86  A    between atoms: _205  and  _206
REMARK   87  A    between atoms: _208  and  _210
REMARK   88  A    between atoms: _210  and  _211
REMARK   89  A    between atoms: _214  and  _216
REMARK   90  A    between atoms: _216  and  _217
REMARK   91  A    between atoms: _216  and  _219
REMARK   92  A    between atoms: _219  and  _220
REMARK   93  A    between atoms: _226  and  _228
REMARK   94  A    between atoms: _228  and  _229
REMARK   95  A    between atoms: _228  and  _231
REMARK   96  A    between atoms: _231  and  _232
REMARK   97  A    between atoms: _235  and  _237
REMARK   98  A    between atoms: _237  and  _238
REMARK   99  A    between atoms: _237  and  _240
REMARK  100  A    between atoms: _240  and  _241
REMARK  101  A    between atoms: _241  and  _242
REMARK  102  A    between atoms: _245  and  _247
REMARK  103  A    between atoms: _247  and  _248
REMARK  104  A    between atoms: _247  and  _250
REMARK  105  A    between atoms: _252  and  _254
REMARK  106  A    between atoms: _254  and  _255
REMARK  107  A    between atoms: _254  and  _257
REMARK  108  A    between atoms: _257  and  _258
REMARK  109  A    between atoms: _261  and  _263
REMARK  110  A    between atoms: _263  and  _264
REMARK  111  A    between atoms: _263  and  _266
REMARK  112  A    between atoms: _266  and  _267
REMARK  113  A    between atoms: _269  and  _271
REMARK  114  A    between atoms: _271  and  _272
REMARK  115  A    between atoms: _271  and  _274
REMARK  116  A    between atoms: _274  and  _275
REMARK  117  A    between atoms: _278  and  _280
REMARK  118  A    between atoms: _280  and  _281
REMARK  119  A    between atoms: _280  and  _283
REMARK  120  A    between atoms: _283  and  _284
REMARK  121  A    between atoms: _284  and  _285
REMARK  122  A    between atoms: _290  and  _292
REMARK  123  A    between atoms: _292  and  _293
REMARK  124  A    between atoms: _292  and  _295
REMARK  125  A    between atoms: _295  and  _296
REMARK  126  A    between atoms: _296  and  _297
REMARK  127  A    between atoms: _302  and  _304
REMARK  128  A    between atoms: _304  and  _305
REMARK  129  A    between atoms: _307  and  _309
REMARK  130  A    between atoms: _309  and  _310
REMARK  131  A    between atoms: _309  and  _312
REMARK  132  A    between atoms: _312  and  _313
REMARK  133  A    between atoms: _315  and  _317
REMARK  134  A    between atoms: _317  and  _318
REMARK  135  A    between atoms: _317  and  _320
REMARK  136  A    between atoms: _320  and  _321
REMARK  137  A    between atoms: _321  and  _322
REMARK  138  A    between atoms: _322  and  _323
REMARK  139  A    between atoms: _332  and  _334
REMARK  140  A    between atoms: _334  and  _335
REMARK  141  A    between atoms: _338  and  _340
REMARK  142  A    between atoms: _340  and  _341
REMARK  143  A    between atoms: _340  and  _343
REMARK  144  A    between atoms: _346  and  _348
REMARK  145  A    between atoms: _348  and  _349
REMARK  146  A    between atoms: _351  and  _353
REMARK  147  A    between atoms: _353  and  _354
REMARK  148  A    between atoms: _356  and  _358
REMARK  149  A    between atoms: _358  and  _359
REMARK  150  A    between atoms: _358  and  _361
REMARK  151  A    between atoms: _361  and  _362
REMARK  152  A    between atoms: _365  and  _367
REMARK  153  A    between atoms: _367  and  _368
REMARK  154  A    between atoms: _371  and  _373
REMARK  155  A    between atoms: _373  and  _374
REMARK  156  A    between atoms: _373  and  _376
REMARK  157  A    between atoms: _379  and  _381
REMARK  158  A    between atoms: _381  and  _382
REMARK  159  A    between atoms: _384  and  _386
REMARK  160  A    between atoms: _386  and  _387
REMARK  161  A    between atoms: _386  and  _389
REMARK  162  A    between atoms: _389  and  _390
REMARK  163  A    between atoms: _390  and  _391
REMARK  164  A    between atoms: _394  and  _396
REMARK  165  A    between atoms: _396  and  _397
REMARK  166  A    between atoms: _396  and  _399
REMARK  167  A    between atoms: _399  and  _400
REMARK  168  A    between atoms: _405  and  _406
REMARK  169  A    between atoms: _408  and  _410
REMARK  170  A    between atoms: _410  and  _411
REMARK  171  A    between atoms: _410  and  _413
REMARK  172  A    between atoms: _413  and  _414
REMARK  173  A    between atoms: _417  and  _419
REMARK  174  A    between atoms: _419  and  _420
REMARK  175  A    between atoms: _419  and  _422
REMARK  176  A    between atoms: _422  and  _423
REMARK  177  A    between atoms: _423  and  _424
REMARK  178  A    between atoms: _426  and  _428
REMARK  179  A    between atoms: _428  and  _429
REMARK  180  A    between atoms: _431  and  _433
REMARK  181  A    between atoms: _433  and  _434
REMARK  182  A    between atoms: _433  and  _436
REMARK  183  A    between atoms: _439  and  _441
REMARK  184  A    between atoms: _441  and  _442
REMARK  185  A    between atoms: _444  and  _446
REMARK  186  A    between atoms: _446  and  _447
REMARK  187  A    between atoms: _446  and  _449
REMARK  188  A    between atoms: _449  and  _450
REMARK  189  A    between atoms: _456  and  _458
REMARK  190  A    between atoms: _458  and  _459
REMARK  191  A    between atoms: _458  and  _461
REMARK  192  A    between atoms: _461  and  _462
REMARK  193  A    between atoms: _465  and  _467
REMARK  194  A    between atoms: _467  and  _468
REMARK  195  A    between atoms: _467  and  _470
REMARK  196  A    between atoms: _472  and  _474
REMARK  197  A    between atoms: _474  and  _475
REMARK  198  A    between atoms: _474  and  _477
REMARK  199  A    between atoms: _480  and  _482
REMARK  200  A    between atoms: _482  and  _483
REMARK  201  A    between atoms: _482  and  _485
REMARK  202  A    between atoms: _485  and  _486
REMARK  203  A    between atoms: _489  and  _491
REMARK  204  A    between atoms: _491  and  _492
REMARK  205  A    between atoms: _491  and  _494
REMARK  206  A    between atoms: _494  and  _495
REMARK  207  A    between atoms: _498  and  _500
REMARK  208  A    between atoms: _500  and  _501
REMARK  209  A    between atoms: _500  and  _503
REMARK  210  A    between atoms: _503  and  _504
REMARK  211  A    between atoms: _504  and  _505
REMARK  212  A    between atoms: _505  and  _506
REMARK                            x       y       z     vdW  Elec       q    Type
REMARK                         _______ _______ _______ _____ _____    ______ ____
ROOT
ATOM      1  O   HOH     1     100.244  15.310  13.286  0.00  0.00    +0.000 OA
ENDROOT
TORSDOF 0
REMARK  Name = ../refined-set-2016/4kwo/4kwo_pocket.pdb
REMARK  212 active torsions:
REMARK  status: ('A' for Active; 'I' for Inactive)
REMARK    1  A    between atoms: _1  and  _3
REMARK    2  A    between atoms: _3  and  _4
REMARK    3  A    between atoms: _3  and  _6
REMARK    4  A    between atoms: _6  and  _7
REMARK    5  A    between atoms: _7  and  _8
REMARK    6  A    between atoms: _11  and  _12
REMARK    7  A    between atoms: _17  and  _19
REMARK    8  A    between atoms: _19  and  _20
REMARK    9  A    between atoms: _19  and  _22
REMARK   10  A    between atoms: _25  and  _27
REMARK   11  A    between atoms: _27  and  _28
REMARK   12  A    between atoms: _30  and  _32
REMARK   13  A    between atoms: _32  and  _33
REMARK   14  A    between atoms: _32  and  _35
REMARK   15  A    between atoms: _35  and  _36
REMARK   16  A    between atoms: _39  and  _41
REMARK   17  A    between atoms: _41  and  _42
REMARK   18  A    between atoms: _41  and  _44
REMARK   19  A    between atoms: _44  and  _45
REMARK   20  A    between atoms: _48  and  _50
REMARK   21  A    between atoms: _50  and  _51
REMARK   22  A    between atoms: _53  and  _55
REMARK   23  A    between atoms: _55  and  _56
REMARK   24  A    between atoms: _55  and  _58
REMARK   25  A    between atoms: _58  and  _59
REMARK   26  A    between atoms: _64  and  _66
REMARK   27  A    between atoms: _66  and  _67
REMARK   28  A    between atoms: _66  and  _69
REMARK   29  A    between atoms: _69  and  _70
REMARK   30  A    between atoms: _73  and  _75
REMARK   31  A    between atoms: _75  and  _76
REMARK   32  A    between atoms: _75  and  _78
REMARK   33  A    between atoms: _78  and  _79
REMARK   34  A    between atoms: _84  and  _85
REMARK   35  A    between atoms: _87  and  _89
REMARK   36  A    between atoms: _89  and  _90
REMARK   37  A    between atoms: _89  and  _92
REMARK   38  A    between atoms: _92  and  _93
REMARK   39  A    between atoms: _98  and  _100
REMARK   40  A    between atoms: _100  and  _101
REMARK   41  A    between atoms: _100  and  _103
REMARK   42  A    between atoms: _103  and  _104
REMARK   43  A    between atoms: _107  and  _109
REMARK   44  A    between atoms: _109  and  _110
REMARK   45  A    between atoms: _109  and  _112
REMARK   46  A    between atoms: _112  and  _113
REMARK   47  A    between atoms: _116  and  _118
REMARK   48  A    between atoms: _118  and  _119
REMARK   49  A    between atoms: _118  and  _121
REMARK   50  A    between atoms: _121  and  _122
REMARK   51  A    between atoms: _125  and  _127
REMARK   52  A    between atoms: _127  and  _128
REMARK   53  A    between atoms: _127  and  _130
REMARK   54  A    between atoms: _130  and  _131
REMARK   55  A    between atoms: _133  and  _135
REMARK   56  A    between atoms: _135  and  _136
REMARK   57  A    between atoms: _138  and  _140
REMARK   58  A    between atoms: _140  and  _141
REMARK   59  A    between atoms: _143  and  _145
REMARK   60  A    between atoms: _145  and  _146
REMARK   61  A    between atoms: _145  and  _148
REMARK   62  A    between atoms: _148  and  _149
REMARK   63  A    between atoms: _154  and  _155
REMARK   64  A    between atoms: _157  and  _159
REMARK   65  A    between atoms: _159  and  _160
REMARK   66  A    between atoms: _159  and  _162
REMARK   67  A    between atoms: _162  and  _163
REMARK   68  A    between atoms: _163  and  _164
REMARK   69  A    between atoms: _169  and  _171
REMARK   70  A    between atoms: _171  and  _172
REMARK   71  A    between atoms: _171  and  _174
REMARK   72  A    between atoms: _174  and  _175
REMARK   73  A    between atoms: _178  and  _180
REMARK   74  A    between atoms: _180  and  _181
REMARK   75  A    between atoms: _180  and  _183
REMARK   76  A    between atoms: _183  and  _184
REMARK   77  A    between atoms: _184  and  _185
REMARK   78  A    between atoms: _190  and  _192
REMARK   79  A    between atoms: _192  and  _193
REMARK   80  A    between atoms: _192  and  _195
REMARK   81  A    between atoms: _195  and  _196
REMARK   82  A    between atoms: _199  and  _201
REMARK   83  A    between atoms: _201  and  _202
REMARK   84  A    between atoms: _201  and  _204
REMARK   85  A    between atoms: _204  and  _205
REMARK   86  A    between atoms: _205  and  _206
REMARK   87  A    between atoms: _208  and  _210
REMARK   88  A    between atoms: _210  and  _211
REMARK   89  A    between atoms: _214  and  _216
REMARK   90  A    between atoms: _216  and  _217
REMARK   91  A    between atoms: _216  and  _219
REMARK   92  A    between atoms: _219  and  _220
REMARK   93  A    between atoms: _226  and  _228
REMARK   94  A    between atoms: _228  and  _229
REMARK   95  A    between atoms: _228  and  _231
REMARK   96  A    between atoms: _231  and  _232
REMARK   97  A    between atoms: _235  and  _237
REMARK   98  A    between atoms: _237  and  _238
REMARK   99  A    between atoms: _237  and  _240
REMARK  100  A    between atoms: _240  and  _241
REMARK  101  A    between atoms: _241  and  _242
REMARK  102  A    between atoms: _245  and  _247
REMARK  103  A    between atoms: _247  and  _248
REMARK  104  A    between atoms: _247  and  _250
REMARK  105  A    between atoms: _252  and  _254
REMARK  106  A    between atoms: _254  and  _255
REMARK  107  A    between atoms: _254  and  _257
REMARK  108  A    between atoms: _257  and  _258
REMARK  109  A    between atoms: _261  and  _263
REMARK  110  A    between atoms: _263  and  _264
REMARK  111  A    between atoms: _263  and  _266
REMARK  112  A    between atoms: _266  and  _267
REMARK  113  A    between atoms: _269  and  _271
REMARK  114  A    between atoms: _271  and  _272
REMARK  115  A    between atoms: _271  and  _274
REMARK  116  A    between atoms: _274  and  _275
REMARK  117  A    between atoms: _278  and  _280
REMARK  118  A    between atoms: _280  and  _281
REMARK  119  A    between atoms: _280  and  _283
REMARK  120  A    between atoms: _283  and  _284
REMARK  121  A    between atoms: _284  and  _285
REMARK  122  A    between atoms: _290  and  _292
REMARK  123  A    between atoms: _292  and  _293
REMARK  124  A    between atoms: _292  and  _295
REMARK  125  A    between atoms: _295  and  _296
REMARK  126  A    between atoms: _296  and  _297
REMARK  127  A    between atoms: _302  and  _304
REMARK  128  A    between atoms: _304  and  _305
REMARK  129  A    between atoms: _307  and  _309
REMARK  130  A    between atoms: _309  and  _310
REMARK  131  A    between atoms: _309  and  _312
REMARK  132  A    between atoms: _312  and  _313
REMARK  133  A    between atoms: _315  and  _317
REMARK  134  A    between atoms: _317  and  _318
REMARK  135  A    between atoms: _317  and  _320
REMARK  136  A    between atoms: _320  and  _321
REMARK  137  A    between atoms: _321  and  _322
REMARK  138  A    between atoms: _322  and  _323
REMARK  139  A    between atoms: _332  and  _334
REMARK  140  A    between atoms: _334  and  _335
REMARK  141  A    between atoms: _338  and  _340
REMARK  142  A    between atoms: _340  and  _341
REMARK  143  A    between atoms: _340  and  _343
REMARK  144  A    between atoms: _346  and  _348
REMARK  145  A    between atoms: _348  and  _349
REMARK  146  A    between atoms: _351  and  _353
REMARK  147  A    between atoms: _353  and  _354
REMARK  148  A    between atoms: _356  and  _358
REMARK  149  A    between atoms: _358  and  _359
REMARK  150  A    between atoms: _358  and  _361
REMARK  151  A    between atoms: _361  and  _362
REMARK  152  A    between atoms: _365  and  _367
REMARK  153  A    between atoms: _367  and  _368
REMARK  154  A    between atoms: _371  and  _373
REMARK  155  A    between atoms: _373  and  _374
REMARK  156  A    between atoms: _373  and  _376
REMARK  157  A    between atoms: _379  and  _381
REMARK  158  A    between atoms: _381  and  _382
REMARK  159  A    between atoms: _384  and  _386
REMARK  160  A    between atoms: _386  and  _387
REMARK  161  A    between atoms: _386  and  _389
REMARK  162  A    between atoms: _389  and  _390
REMARK  163  A    between atoms: _390  and  _391
REMARK  164  A    between atoms: _394  and  _396
REMARK  165  A    between atoms: _396  and  _397
REMARK  166  A    between atoms: _396  and  _399
REMARK  167  A    between atoms: _399  and  _400
REMARK  168  A    between atoms: _405  and  _406
REMARK  169  A    between atoms: _408  and  _410
REMARK  170  A    between atoms: _410  and  _411
REMARK  171  A    between atoms: _410  and  _413
REMARK  172  A    between atoms: _413  and  _414
REMARK  173  A    between atoms: _417  and  _419
REMARK  174  A    between atoms: _419  and  _420
REMARK  175  A    between atoms: _419  and  _422
REMARK  176  A    between atoms: _422  and  _423
REMARK  177  A    between atoms: _423  and  _424
REMARK  178  A    between atoms: _426  and  _428
REMARK  179  A    between atoms: _428  and  _429
REMARK  180  A    between atoms: _431  and  _433
REMARK  181  A    between atoms: _433  and  _434
REMARK  182  A    between atoms: _433  and  _436
REMARK  183  A    between atoms: _439  and  _441
REMARK  184  A    between atoms: _441  and  _442
REMARK  185  A    between atoms: _444  and  _446
REMARK  186  A    between atoms: _446  and  _447
REMARK  187  A    between atoms: _446  and  _449
REMARK  188  A    between atoms: _449  and  _450
REMARK  189  A    between atoms: _456  and  _458
REMARK  190  A    between atoms: _458  and  _459
REMARK  191  A    between atoms: _458  and  _461
REMARK  192  A    between atoms: _461  and  _462
REMARK  193  A    between atoms: _465  and  _467
REMARK  194  A    between atoms: _467  and  _468
REMARK  195  A    between atoms: _467  and  _470
REMARK  196  A    between atoms: _472  and  _474
REMARK  197  A    between atoms: _474  and  _475
REMARK  198  A    between atoms: _474  and  _477
REMARK  199  A    between atoms: _480  and  _482
REMARK  200  A    between atoms: _482  and  _483
REMARK  201  A    between atoms: _482  and  _485
REMARK  202  A    between atoms: _485  and  _486
REMARK  203  A    between atoms: _489  and  _491
REMARK  204  A    between atoms: _491  and  _492
REMARK  205  A    between atoms: _491  and  _494
REMARK  206  A    between atoms: _494  and  _495
REMARK  207  A    between atoms: _498  and  _500
REMARK  208  A    between atoms: _500  and  _501
REMARK  209  A    between atoms: _500  and  _503
REMARK  210  A    between atoms: _503  and  _504
REMARK  211  A    between atoms: _504  and  _505
REMARK  212  A    between atoms: _505  and  _506
REMARK                            x       y       z     vdW  Elec       q    Type
REMARK                         _______ _______ _______ _____ _____    ______ ____
ROOT
ATOM      1  O   HOH     1     105.529  15.586  12.443  0.00  0.00    +0.000 OA
ENDROOT
TORSDOF 0
REMARK  Name = ../refined-set-2016/4kwo/4kwo_pocket.pdb
REMARK  212 active torsions:
REMARK  status: ('A' for Active; 'I' for Inactive)
REMARK    1  A    between atoms: _1  and  _3
REMARK    2  A    between atoms: _3  and  _4
REMARK    3  A    between atoms: _3  and  _6
REMARK    4  A    between atoms: _6  and  _7
REMARK    5  A    between atoms: _7  and  _8
REMARK    6  A    between atoms: _11  and  _12
REMARK    7  A    between atoms: _17  and  _19
REMARK    8  A    between atoms: _19  and  _20
REMARK    9  A    between atoms: _19  and  _22
REMARK   10  A    between atoms: _25  and  _27
REMARK   11  A    between atoms: _27  and  _28
REMARK   12  A    between atoms: _30  and  _32
REMARK   13  A    between atoms: _32  and  _33
REMARK   14  A    between atoms: _32  and  _35
REMARK   15  A    between atoms: _35  and  _36
REMARK   16  A    between atoms: _39  and  _41
REMARK   17  A    between atoms: _41  and  _42
REMARK   18  A    between atoms: _41  and  _44
REMARK   19  A    between atoms: _44  and  _45
REMARK   20  A    between atoms: _48  and  _50
REMARK   21  A    between atoms: _50  and  _51
REMARK   22  A    between atoms: _53  and  _55
REMARK   23  A    between atoms: _55  and  _56
REMARK   24  A    between atoms: _55  and  _58
REMARK   25  A    between atoms: _58  and  _59
REMARK   26  A    between atoms: _64  and  _66
REMARK   27  A    between atoms: _66  and  _67
REMARK   28  A    between atoms: _66  and  _69
REMARK   29  A    between atoms: _69  and  _70
REMARK   30  A    between atoms: _73  and  _75
REMARK   31  A    between atoms: _75  and  _76
REMARK   32  A    between atoms: _75  and  _78
REMARK   33  A    between atoms: _78  and  _79
REMARK   34  A    between atoms: _84  and  _85
REMARK   35  A    between atoms: _87  and  _89
REMARK   36  A    between atoms: _89  and  _90
REMARK   37  A    between atoms: _89  and  _92
REMARK   38  A    between atoms: _92  and  _93
REMARK   39  A    between atoms: _98  and  _100
REMARK   40  A    between atoms: _100  and  _101
REMARK   41  A    between atoms: _100  and  _103
REMARK   42  A    between atoms: _103  and  _104
REMARK   43  A    between atoms: _107  and  _109
REMARK   44  A    between atoms: _109  and  _110
REMARK   45  A    between atoms: _109  and  _112
REMARK   46  A    between atoms: _112  and  _113
REMARK   47  A    between atoms: _116  and  _118
REMARK   48  A    between atoms: _118  and  _119
REMARK   49  A    between atoms: _118  and  _121
REMARK   50  A    between atoms: _121  and  _122
REMARK   51  A    between atoms: _125  and  _127
REMARK   52  A    between atoms: _127  and  _128
REMARK   53  A    between atoms: _127  and  _130
REMARK   54  A    between atoms: _130  and  _131
REMARK   55  A    between atoms: _133  and  _135
REMARK   56  A    between atoms: _135  and  _136
REMARK   57  A    between atoms: _138  and  _140
REMARK   58  A    between atoms: _140  and  _141
REMARK   59  A    between atoms: _143  and  _145
REMARK   60  A    between atoms: _145  and  _146
REMARK   61  A    between atoms: _145  and  _148
REMARK   62  A    between atoms: _148  and  _149
REMARK   63  A    between atoms: _154  and  _155
REMARK   64  A    between atoms: _157  and  _159
REMARK   65  A    between atoms: _159  and  _160
REMARK   66  A    between atoms: _159  and  _162
REMARK   67  A    between atoms: _162  and  _163
REMARK   68  A    between atoms: _163  and  _164
REMARK   69  A    between atoms: _169  and  _171
REMARK   70  A    between atoms: _171  and  _172
REMARK   71  A    between atoms: _171  and  _174
REMARK   72  A    between atoms: _174  and  _175
REMARK   73  A    between atoms: _178  and  _180
REMARK   74  A    between atoms: _180  and  _181
REMARK   75  A    between atoms: _180  and  _183
REMARK   76  A    between atoms: _183  and  _184
REMARK   77  A    between atoms: _184  and  _185
REMARK   78  A    between atoms: _190  and  _192
REMARK   79  A    between atoms: _192  and  _193
REMARK   80  A    between atoms: _192  and  _195
REMARK   81  A    between atoms: _195  and  _196
REMARK   82  A    between atoms: _199  and  _201
REMARK   83  A    between atoms: _201  and  _202
REMARK   84  A    between atoms: _201  and  _204
REMARK   85  A    between atoms: _204  and  _205
REMARK   86  A    between atoms: _205  and  _206
REMARK   87  A    between atoms: _208  and  _210
REMARK   88  A    between atoms: _210  and  _211
REMARK   89  A    between atoms: _214  and  _216
REMARK   90  A    between atoms: _216  and  _217
REMARK   91  A    between atoms: _216  and  _219
REMARK   92  A    between atoms: _219  and  _220
REMARK   93  A    between atoms: _226  and  _228
REMARK   94  A    between atoms: _228  and  _229
REMARK   95  A    between atoms: _228  and  _231
REMARK   96  A    between atoms: _231  and  _232
REMARK   97  A    between atoms: _235  and  _237
REMARK   98  A    between atoms: _237  and  _238
REMARK   99  A    between atoms: _237  and  _240
REMARK  100  A    between atoms: _240  and  _241
REMARK  101  A    between atoms: _241  and  _242
REMARK  102  A    between atoms: _245  and  _247
REMARK  103  A    between atoms: _247  and  _248
REMARK  104  A    between atoms: _247  and  _250
REMARK  105  A    between atoms: _252  and  _254
REMARK  106  A    between atoms: _254  and  _255
REMARK  107  A    between atoms: _254  and  _257
REMARK  108  A    between atoms: _257  and  _258
REMARK  109  A    between atoms: _261  and  _263
REMARK  110  A    between atoms: _263  and  _264
REMARK  111  A    between atoms: _263  and  _266
REMARK  112  A    between atoms: _266  and  _267
REMARK  113  A    between atoms: _269  and  _271
REMARK  114  A    between atoms: _271  and  _272
REMARK  115  A    between atoms: _271  and  _274
REMARK  116  A    between atoms: _274  and  _275
REMARK  117  A    between atoms: _278  and  _280
REMARK  118  A    between atoms: _280  and  _281
REMARK  119  A    between atoms: _280  and  _283
REMARK  120  A    between atoms: _283  and  _284
REMARK  121  A    between atoms: _284  and  _285
REMARK  122  A    between atoms: _290  and  _292
REMARK  123  A    between atoms: _292  and  _293
REMARK  124  A    between atoms: _292  and  _295
REMARK  125  A    between atoms: _295  and  _296
REMARK  126  A    between atoms: _296  and  _297
REMARK  127  A    between atoms: _302  and  _304
REMARK  128  A    between atoms: _304  and  _305
REMARK  129  A    between atoms: _307  and  _309
REMARK  130  A    between atoms: _309  and  _310
REMARK  131  A    between atoms: _309  and  _312
REMARK  132  A    between atoms: _312  and  _313
REMARK  133  A    between atoms: _315  and  _317
REMARK  134  A    between atoms: _317  and  _318
REMARK  135  A    between atoms: _317  and  _320
REMARK  136  A    between atoms: _320  and  _321
REMARK  137  A    between atoms: _321  and  _322
REMARK  138  A    between atoms: _322  and  _323
REMARK  139  A    between atoms: _332  and  _334
REMARK  140  A    between atoms: _334  and  _335
REMARK  141  A    between atoms: _338  and  _340
REMARK  142  A    between atoms: _340  and  _341
REMARK  143  A    between atoms: _340  and  _343
REMARK  144  A    between atoms: _346  and  _348
REMARK  145  A    between atoms: _348  and  _349
REMARK  146  A    between atoms: _351  and  _353
REMARK  147  A    between atoms: _353  and  _354
REMARK  148  A    between atoms: _356  and  _358
REMARK  149  A    between atoms: _358  and  _359
REMARK  150  A    between atoms: _358  and  _361
REMARK  151  A    between atoms: _361  and  _362
REMARK  152  A    between atoms: _365  and  _367
REMARK  153  A    between atoms: _367  and  _368
REMARK  154  A    between atoms: _371  and  _373
REMARK  155  A    between atoms: _373  and  _374
REMARK  156  A    between atoms: _373  and  _376
REMARK  157  A    between atoms: _379  and  _381
REMARK  158  A    between atoms: _381  and  _382
REMARK  159  A    between atoms: _384  and  _386
REMARK  160  A    between atoms: _386  and  _387
REMARK  161  A    between atoms: _386  and  _389
REMARK  162  A    between atoms: _389  and  _390
REMARK  163  A    between atoms: _390  and  _391
REMARK  164  A    between atoms: _394  and  _396
REMARK  165  A    between atoms: _396  and  _397
REMARK  166  A    between atoms: _396  and  _399
REMARK  167  A    between atoms: _399  and  _400
REMARK  168  A    between atoms: _405  and  _406
REMARK  169  A    between atoms: _408  and  _410
REMARK  170  A    between atoms: _410  and  _411
REMARK  171  A    between atoms: _410  and  _413
REMARK  172  A    between atoms: _413  and  _414
REMARK  173  A    between atoms: _417  and  _419
REMARK  174  A    between atoms: _419  and  _420
REMARK  175  A    between atoms: _419  and  _422
REMARK  176  A    between atoms: _422  and  _423
REMARK  177  A    between atoms: _423  and  _424
REMARK  178  A    between atoms: _426  and  _428
REMARK  179  A    between atoms: _428  and  _429
REMARK  180  A    between atoms: _431  and  _433
REMARK  181  A    between atoms: _433  and  _434
REMARK  182  A    between atoms: _433  and  _436
REMARK  183  A    between atoms: _439  and  _441
REMARK  184  A    between atoms: _441  and  _442
REMARK  185  A    between atoms: _444  and  _446
REMARK  186  A    between atoms: _446  and  _447
REMARK  187  A    between atoms: _446  and  _449
REMARK  188  A    between atoms: _449  and  _450
REMARK  189  A    between atoms: _456  and  _458
REMARK  190  A    between atoms: _458  and  _459
REMARK  191  A    between atoms: _458  and  _461
REMARK  192  A    between atoms: _461  and  _462
REMARK  193  A    between atoms: _465  and  _467
REMARK  194  A    between atoms: _467  and  _468
REMARK  195  A    between atoms: _467  and  _470
REMARK  196  A    between atoms: _472  and  _474
REMARK  197  A    between atoms: _474  and  _475
REMARK  198  A    between atoms: _474  and  _477
REMARK  199  A    between atoms: _480  and  _482
REMARK  200  A    between atoms: _482  and  _483
REMARK  201  A    between atoms: _482  and  _485
REMARK  202  A    between atoms: _485  and  _486
REMARK  203  A    between atoms: _489  and  _491
REMARK  204  A    between atoms: _491  and  _492
REMARK  205  A    between atoms: _491  and  _494
REMARK  206  A    between atoms: _494  and  _495
REMARK  207  A    between atoms: _498  and  _500
REMARK  208  A    between atoms: _500  and  _501
REMARK  209  A    between atoms: _500  and  _503
REMARK  210  A    between atoms: _503  and  _504
REMARK  211  A    between atoms: _504  and  _505
REMARK  212  A    between atoms: _505  and  _506
REMARK                            x       y       z     vdW  Elec       q    Type
REMARK                         _______ _______ _______ _____ _____    ______ ____
ROOT
ATOM      1  O   HOH     1      92.757  15.539  21.140  0.00  0.00    +0.000 OA
ENDROOT
TORSDOF 0
REMARK  Name = ../refined-set-2016/4kwo/4kwo_pocket.pdb
REMARK  212 active torsions:
REMARK  status: ('A' for Active; 'I' for Inactive)
REMARK    1  A    between atoms: _1  and  _3
REMARK    2  A    between atoms: _3  and  _4
REMARK    3  A    between atoms: _3  and  _6
REMARK    4  A    between atoms: _6  and  _7
REMARK    5  A    between atoms: _7  and  _8
REMARK    6  A    between atoms: _11  and  _12
REMARK    7  A    between atoms: _17  and  _19
REMARK    8  A    between atoms: _19  and  _20
REMARK    9  A    between atoms: _19  and  _22
REMARK   10  A    between atoms: _25  and  _27
REMARK   11  A    between atoms: _27  and  _28
REMARK   12  A    between atoms: _30  and  _32
REMARK   13  A    between atoms: _32  and  _33
REMARK   14  A    between atoms: _32  and  _35
REMARK   15  A    between atoms: _35  and  _36
REMARK   16  A    between atoms: _39  and  _41
REMARK   17  A    between atoms: _41  and  _42
REMARK   18  A    between atoms: _41  and  _44
REMARK   19  A    between atoms: _44  and  _45
REMARK   20  A    between atoms: _48  and  _50
REMARK   21  A    between atoms: _50  and  _51
REMARK   22  A    between atoms: _53  and  _55
REMARK   23  A    between atoms: _55  and  _56
REMARK   24  A    between atoms: _55  and  _58
REMARK   25  A    between atoms: _58  and  _59
REMARK   26  A    between atoms: _64  and  _66
REMARK   27  A    between atoms: _66  and  _67
REMARK   28  A    between atoms: _66  and  _69
REMARK   29  A    between atoms: _69  and  _70
REMARK   30  A    between atoms: _73  and  _75
REMARK   31  A    between atoms: _75  and  _76
REMARK   32  A    between atoms: _75  and  _78
REMARK   33  A    between atoms: _78  and  _79
REMARK   34  A    between atoms: _84  and  _85
REMARK   35  A    between atoms: _87  and  _89
REMARK   36  A    between atoms: _89  and  _90
REMARK   37  A    between atoms: _89  and  _92
REMARK   38  A    between atoms: _92  and  _93
REMARK   39  A    between atoms: _98  and  _100
REMARK   40  A    between atoms: _100  and  _101
REMARK   41  A    between atoms: _100  and  _103
REMARK   42  A    between atoms: _103  and  _104
REMARK   43  A    between atoms: _107  and  _109
REMARK   44  A    between atoms: _109  and  _110
REMARK   45  A    between atoms: _109  and  _112
REMARK   46  A    between atoms: _112  and  _113
REMARK   47  A    between atoms: _116  and  _118
REMARK   48  A    between atoms: _118  and  _119
REMARK   49  A    between atoms: _118  and  _121
REMARK   50  A    between atoms: _121  and  _122
REMARK   51  A    between atoms: _125  and  _127
REMARK   52  A    between atoms: _127  and  _128
REMARK   53  A    between atoms: _127  and  _130
REMARK   54  A    between atoms: _130  and  _131
REMARK   55  A    between atoms: _133  and  _135
REMARK   56  A    between atoms: _135  and  _136
REMARK   57  A    between atoms: _138  and  _140
REMARK   58  A    between atoms: _140  and  _141
REMARK   59  A    between atoms: _143  and  _145
REMARK   60  A    between atoms: _145  and  _146
REMARK   61  A    between atoms: _145  and  _148
REMARK   62  A    between atoms: _148  and  _149
REMARK   63  A    between atoms: _154  and  _155
REMARK   64  A    between atoms: _157  and  _159
REMARK   65  A    between atoms: _159  and  _160
REMARK   66  A    between atoms: _159  and  _162
REMARK   67  A    between atoms: _162  and  _163
REMARK   68  A    between atoms: _163  and  _164
REMARK   69  A    between atoms: _169  and  _171
REMARK   70  A    between atoms: _171  and  _172
REMARK   71  A    between atoms: _171  and  _174
REMARK   72  A    between atoms: _174  and  _175
REMARK   73  A    between atoms: _178  and  _180
REMARK   74  A    between atoms: _180  and  _181
REMARK   75  A    between atoms: _180  and  _183
REMARK   76  A    between atoms: _183  and  _184
REMARK   77  A    between atoms: _184  and  _185
REMARK   78  A    between atoms: _190  and  _192
REMARK   79  A    between atoms: _192  and  _193
REMARK   80  A    between atoms: _192  and  _195
REMARK   81  A    between atoms: _195  and  _196
REMARK   82  A    between atoms: _199  and  _201
REMARK   83  A    between atoms: _201  and  _202
REMARK   84  A    between atoms: _201  and  _204
REMARK   85  A    between atoms: _204  and  _205
REMARK   86  A    between atoms: _205  and  _206
REMARK   87  A    between atoms: _208  and  _210
REMARK   88  A    between atoms: _210  and  _211
REMARK   89  A    between atoms: _214  and  _216
REMARK   90  A    between atoms: _216  and  _217
REMARK   91  A    between atoms: _216  and  _219
REMARK   92  A    between atoms: _219  and  _220
REMARK   93  A    between atoms: _226  and  _228
REMARK   94  A    between atoms: _228  and  _229
REMARK   95  A    between atoms: _228  and  _231
REMARK   96  A    between atoms: _231  and  _232
REMARK   97  A    between atoms: _235  and  _237
REMARK   98  A    between atoms: _237  and  _238
REMARK   99  A    between atoms: _237  and  _240
REMARK  100  A    between atoms: _240  and  _241
REMARK  101  A    between atoms: _241  and  _242
REMARK  102  A    between atoms: _245  and  _247
REMARK  103  A    between atoms: _247  and  _248
REMARK  104  A    between atoms: _247  and  _250
REMARK  105  A    between atoms: _252  and  _254
REMARK  106  A    between atoms: _254  and  _255
REMARK  107  A    between atoms: _254  and  _257
REMARK  108  A    between atoms: _257  and  _258
REMARK  109  A    between atoms: _261  and  _263
REMARK  110  A    between atoms: _263  and  _264
REMARK  111  A    between atoms: _263  and  _266
REMARK  112  A    between atoms: _266  and  _267
REMARK  113  A    between atoms: _269  and  _271
REMARK  114  A    between atoms: _271  and  _272
REMARK  115  A    between atoms: _271  and  _274
REMARK  116  A    between atoms: _274  and  _275
REMARK  117  A    between atoms: _278  and  _280
REMARK  118  A    between atoms: _280  and  _281
REMARK  119  A    between atoms: _280  and  _283
REMARK  120  A    between atoms: _283  and  _284
REMARK  121  A    between atoms: _284  and  _285
REMARK  122  A    between atoms: _290  and  _292
REMARK  123  A    between atoms: _292  and  _293
REMARK  124  A    between atoms: _292  and  _295
REMARK  125  A    between atoms: _295  and  _296
REMARK  126  A    between atoms: _296  and  _297
REMARK  127  A    between atoms: _302  and  _304
REMARK  128  A    between atoms: _304  and  _305
REMARK  129  A    between atoms: _307  and  _309
REMARK  130  A    between atoms: _309  and  _310
REMARK  131  A    between atoms: _309  and  _312
REMARK  132  A    between atoms: _312  and  _313
REMARK  133  A    between atoms: _315  and  _317
REMARK  134  A    between atoms: _317  and  _318
REMARK  135  A    between atoms: _317  and  _320
REMARK  136  A    between atoms: _320  and  _321
REMARK  137  A    between atoms: _321  and  _322
REMARK  138  A    between atoms: _322  and  _323
REMARK  139  A    between atoms: _332  and  _334
REMARK  140  A    between atoms: _334  and  _335
REMARK  141  A    between atoms: _338  and  _340
REMARK  142  A    between atoms: _340  and  _341
REMARK  143  A    between atoms: _340  and  _343
REMARK  144  A    between atoms: _346  and  _348
REMARK  145  A    between atoms: _348  and  _349
REMARK  146  A    between atoms: _351  and  _353
REMARK  147  A    between atoms: _353  and  _354
REMARK  148  A    between atoms: _356  and  _358
REMARK  149  A    between atoms: _358  and  _359
REMARK  150  A    between atoms: _358  and  _361
REMARK  151  A    between atoms: _361  and  _362
REMARK  152  A    between atoms: _365  and  _367
REMARK  153  A    between atoms: _367  and  _368
REMARK  154  A    between atoms: _371  and  _373
REMARK  155  A    between atoms: _373  and  _374
REMARK  156  A    between atoms: _373  and  _376
REMARK  157  A    between atoms: _379  and  _381
REMARK  158  A    between atoms: _381  and  _382
REMARK  159  A    between atoms: _384  and  _386
REMARK  160  A    between atoms: _386  and  _387
REMARK  161  A    between atoms: _386  and  _389
REMARK  162  A    between atoms: _389  and  _390
REMARK  163  A    between atoms: _390  and  _391
REMARK  164  A    between atoms: _394  and  _396
REMARK  165  A    between atoms: _396  and  _397
REMARK  166  A    between atoms: _396  and  _399
REMARK  167  A    between atoms: _399  and  _400
REMARK  168  A    between atoms: _405  and  _406
REMARK  169  A    between atoms: _408  and  _410
REMARK  170  A    between atoms: _410  and  _411
REMARK  171  A    between atoms: _410  and  _413
REMARK  172  A    between atoms: _413  and  _414
REMARK  173  A    between atoms: _417  and  _419
REMARK  174  A    between atoms: _419  and  _420
REMARK  175  A    between atoms: _419  and  _422
REMARK  176  A    between atoms: _422  and  _423
REMARK  177  A    between atoms: _423  and  _424
REMARK  178  A    between atoms: _426  and  _428
REMARK  179  A    between atoms: _428  and  _429
REMARK  180  A    between atoms: _431  and  _433
REMARK  181  A    between atoms: _433  and  _434
REMARK  182  A    between atoms: _433  and  _436
REMARK  183  A    between atoms: _439  and  _441
REMARK  184  A    between atoms: _441  and  _442
REMARK  185  A    between atoms: _444  and  _446
REMARK  186  A    between atoms: _446  and  _447
REMARK  187  A    between atoms: _446  and  _449
REMARK  188  A    between atoms: _449  and  _450
REMARK  189  A    between atoms: _456  and  _458
REMARK  190  A    between atoms: _458  and  _459
REMARK  191  A    between atoms: _458  and  _461
REMARK  192  A    between atoms: _461  and  _462
REMARK  193  A    between atoms: _465  and  _467
REMARK  194  A    between atoms: _467  and  _468
REMARK  195  A    between atoms: _467  and  _470
REMARK  196  A    between atoms: _472  and  _474
REMARK  197  A    between atoms: _474  and  _475
REMARK  198  A    between atoms: _474  and  _477
REMARK  199  A    between atoms: _480  and  _482
REMARK  200  A    between atoms: _482  and  _483
REMARK  201  A    between atoms: _482  and  _485
REMARK  202  A    between atoms: _485  and  _486
REMARK  203  A    between atoms: _489  and  _491
REMARK  204  A    between atoms: _491  and  _492
REMARK  205  A    between atoms: _491  and  _494
REMARK  206  A    between atoms: _494  and  _495
REMARK  207  A    between atoms: _498  and  _500
REMARK  208  A    between atoms: _500  and  _501
REMARK  209  A    between atoms: _500  and  _503
REMARK  210  A    between atoms: _503  and  _504
REMARK  211  A    between atoms: _504  and  _505
REMARK  212  A    between atoms: _505  and  _506
REMARK                            x       y       z     vdW  Elec       q    Type
REMARK                         _______ _______ _______ _____ _____    ______ ____
ROOT
ATOM      1  O   HOH     1      92.720  12.724  16.069  0.00  0.00    +0.000 OA
ENDROOT
TORSDOF 0
REMARK  Name = ../refined-set-2016/4kwo/4kwo_pocket.pdb
REMARK  212 active torsions:
REMARK  status: ('A' for Active; 'I' for Inactive)
REMARK    1  A    between atoms: _1  and  _3
REMARK    2  A    between atoms: _3  and  _4
REMARK    3  A    between atoms: _3  and  _6
REMARK    4  A    between atoms: _6  and  _7
REMARK    5  A    between atoms: _7  and  _8
REMARK    6  A    between atoms: _11  and  _12
REMARK    7  A    between atoms: _17  and  _19
REMARK    8  A    between atoms: _19  and  _20
REMARK    9  A    between atoms: _19  and  _22
REMARK   10  A    between atoms: _25  and  _27
REMARK   11  A    between atoms: _27  and  _28
REMARK   12  A    between atoms: _30  and  _32
REMARK   13  A    between atoms: _32  and  _33
REMARK   14  A    between atoms: _32  and  _35
REMARK   15  A    between atoms: _35  and  _36
REMARK   16  A    between atoms: _39  and  _41
REMARK   17  A    between atoms: _41  and  _42
REMARK   18  A    between atoms: _41  and  _44
REMARK   19  A    between atoms: _44  and  _45
REMARK   20  A    between atoms: _48  and  _50
REMARK   21  A    between atoms: _50  and  _51
REMARK   22  A    between atoms: _53  and  _55
REMARK   23  A    between atoms: _55  and  _56
REMARK   24  A    between atoms: _55  and  _58
REMARK   25  A    between atoms: _58  and  _59
REMARK   26  A    between atoms: _64  and  _66
REMARK   27  A    between atoms: _66  and  _67
REMARK   28  A    between atoms: _66  and  _69
REMARK   29  A    between atoms: _69  and  _70
REMARK   30  A    between atoms: _73  and  _75
REMARK   31  A    between atoms: _75  and  _76
REMARK   32  A    between atoms: _75  and  _78
REMARK   33  A    between atoms: _78  and  _79
REMARK   34  A    between atoms: _84  and  _85
REMARK   35  A    between atoms: _87  and  _89
REMARK   36  A    between atoms: _89  and  _90
REMARK   37  A    between atoms: _89  and  _92
REMARK   38  A    between atoms: _92  and  _93
REMARK   39  A    between atoms: _98  and  _100
REMARK   40  A    between atoms: _100  and  _101
REMARK   41  A    between atoms: _100  and  _103
REMARK   42  A    between atoms: _103  and  _104
REMARK   43  A    between atoms: _107  and  _109
REMARK   44  A    between atoms: _109  and  _110
REMARK   45  A    between atoms: _109  and  _112
REMARK   46  A    between atoms: _112  and  _113
REMARK   47  A    between atoms: _116  and  _118
REMARK   48  A    between atoms: _118  and  _119
REMARK   49  A    between atoms: _118  and  _121
REMARK   50  A    between atoms: _121  and  _122
REMARK   51  A    between atoms: _125  and  _127
REMARK   52  A    between atoms: _127  and  _128
REMARK   53  A    between atoms: _127  and  _130
REMARK   54  A    between atoms: _130  and  _131
REMARK   55  A    between atoms: _133  and  _135
REMARK   56  A    between atoms: _135  and  _136
REMARK   57  A    between atoms: _138  and  _140
REMARK   58  A    between atoms: _140  and  _141
REMARK   59  A    between atoms: _143  and  _145
REMARK   60  A    between atoms: _145  and  _146
REMARK   61  A    between atoms: _145  and  _148
REMARK   62  A    between atoms: _148  and  _149
REMARK   63  A    between atoms: _154  and  _155
REMARK   64  A    between atoms: _157  and  _159
REMARK   65  A    between atoms: _159  and  _160
REMARK   66  A    between atoms: _159  and  _162
REMARK   67  A    between atoms: _162  and  _163
REMARK   68  A    between atoms: _163  and  _164
REMARK   69  A    between atoms: _169  and  _171
REMARK   70  A    between atoms: _171  and  _172
REMARK   71  A    between atoms: _171  and  _174
REMARK   72  A    between atoms: _174  and  _175
REMARK   73  A    between atoms: _178  and  _180
REMARK   74  A    between atoms: _180  and  _181
REMARK   75  A    between atoms: _180  and  _183
REMARK   76  A    between atoms: _183  and  _184
REMARK   77  A    between atoms: _184  and  _185
REMARK   78  A    between atoms: _190  and  _192
REMARK   79  A    between atoms: _192  and  _193
REMARK   80  A    between atoms: _192  and  _195
REMARK   81  A    between atoms: _195  and  _196
REMARK   82  A    between atoms: _199  and  _201
REMARK   83  A    between atoms: _201  and  _202
REMARK   84  A    between atoms: _201  and  _204
REMARK   85  A    between atoms: _204  and  _205
REMARK   86  A    between atoms: _205  and  _206
REMARK   87  A    between atoms: _208  and  _210
REMARK   88  A    between atoms: _210  and  _211
REMARK   89  A    between atoms: _214  and  _216
REMARK   90  A    between atoms: _216  and  _217
REMARK   91  A    between atoms: _216  and  _219
REMARK   92  A    between atoms: _219  and  _220
REMARK   93  A    between atoms: _226  and  _228
REMARK   94  A    between atoms: _228  and  _229
REMARK   95  A    between atoms: _228  and  _231
REMARK   96  A    between atoms: _231  and  _232
REMARK   97  A    between atoms: _235  and  _237
REMARK   98  A    between atoms: _237  and  _238
REMARK   99  A    between atoms: _237  and  _240
REMARK  100  A    between atoms: _240  and  _241
REMARK  101  A    between atoms: _241  and  _242
REMARK  102  A    between atoms: _245  and  _247
REMARK  103  A    between atoms: _247  and  _248
REMARK  104  A    between atoms: _247  and  _250
REMARK  105  A    between atoms: _252  and  _254
REMARK  106  A    between atoms: _254  and  _255
REMARK  107  A    between atoms: _254  and  _257
REMARK  108  A    between atoms: _257  and  _258
REMARK  109  A    between atoms: _261  and  _263
REMARK  110  A    between atoms: _263  and  _264
REMARK  111  A    between atoms: _263  and  _266
REMARK  112  A    between atoms: _266  and  _267
REMARK  113  A    between atoms: _269  and  _271
REMARK  114  A    between atoms: _271  and  _272
REMARK  115  A    between atoms: _271  and  _274
REMARK  116  A    between atoms: _274  and  _275
REMARK  117  A    between atoms: _278  and  _280
REMARK  118  A    between atoms: _280  and  _281
REMARK  119  A    between atoms: _280  and  _283
REMARK  120  A    between atoms: _283  and  _284
REMARK  121  A    between atoms: _284  and  _285
REMARK  122  A    between atoms: _290  and  _292
REMARK  123  A    between atoms: _292  and  _293
REMARK  124  A    between atoms: _292  and  _295
REMARK  125  A    between atoms: _295  and  _296
REMARK  126  A    between atoms: _296  and  _297
REMARK  127  A    between atoms: _302  and  _304
REMARK  128  A    between atoms: _304  and  _305
REMARK  129  A    between atoms: _307  and  _309
REMARK  130  A    between atoms: _309  and  _310
REMARK  131  A    between atoms: _309  and  _312
REMARK  132  A    between atoms: _312  and  _313
REMARK  133  A    between atoms: _315  and  _317
REMARK  134  A    between atoms: _317  and  _318
REMARK  135  A    between atoms: _317  and  _320
REMARK  136  A    between atoms: _320  and  _321
REMARK  137  A    between atoms: _321  and  _322
REMARK  138  A    between atoms: _322  and  _323
REMARK  139  A    between atoms: _332  and  _334
REMARK  140  A    between atoms: _334  and  _335
REMARK  141  A    between atoms: _338  and  _340
REMARK  142  A    between atoms: _340  and  _341
REMARK  143  A    between atoms: _340  and  _343
REMARK  144  A    between atoms: _346  and  _348
REMARK  145  A    between atoms: _348  and  _349
REMARK  146  A    between atoms: _351  and  _353
REMARK  147  A    between atoms: _353  and  _354
REMARK  148  A    between atoms: _356  and  _358
REMARK  149  A    between atoms: _358  and  _359
REMARK  150  A    between atoms: _358  and  _361
REMARK  151  A    between atoms: _361  and  _362
REMARK  152  A    between atoms: _365  and  _367
REMARK  153  A    between atoms: _367  and  _368
REMARK  154  A    between atoms: _371  and  _373
REMARK  155  A    between atoms: _373  and  _374
REMARK  156  A    between atoms: _373  and  _376
REMARK  157  A    between atoms: _379  and  _381
REMARK  158  A    between atoms: _381  and  _382
REMARK  159  A    between atoms: _384  and  _386
REMARK  160  A    between atoms: _386  and  _387
REMARK  161  A    between atoms: _386  and  _389
REMARK  162  A    between atoms: _389  and  _390
REMARK  163  A    between atoms: _390  and  _391
REMARK  164  A    between atoms: _394  and  _396
REMARK  165  A    between atoms: _396  and  _397
REMARK  166  A    between atoms: _396  and  _399
REMARK  167  A    between atoms: _399  and  _400
REMARK  168  A    between atoms: _405  and  _406
REMARK  169  A    between atoms: _408  and  _410
REMARK  170  A    between atoms: _410  and  _411
REMARK  171  A    between atoms: _410  and  _413
REMARK  172  A    between atoms: _413  and  _414
REMARK  173  A    between atoms: _417  and  _419
REMARK  174  A    between atoms: _419  and  _420
REMARK  175  A    between atoms: _419  and  _422
REMARK  176  A    between atoms: _422  and  _423
REMARK  177  A    between atoms: _423  and  _424
REMARK  178  A    between atoms: _426  and  _428
REMARK  179  A    between atoms: _428  and  _429
REMARK  180  A    between atoms: _431  and  _433
REMARK  181  A    between atoms: _433  and  _434
REMARK  182  A    between atoms: _433  and  _436
REMARK  183  A    between atoms: _439  and  _441
REMARK  184  A    between atoms: _441  and  _442
REMARK  185  A    between atoms: _444  and  _446
REMARK  186  A    between atoms: _446  and  _447
REMARK  187  A    between atoms: _446  and  _449
REMARK  188  A    between atoms: _449  and  _450
REMARK  189  A    between atoms: _456  and  _458
REMARK  190  A    between atoms: _458  and  _459
REMARK  191  A    between atoms: _458  and  _461
REMARK  192  A    between atoms: _461  and  _462
REMARK  193  A    between atoms: _465  and  _467
REMARK  194  A    between atoms: _467  and  _468
REMARK  195  A    between atoms: _467  and  _470
REMARK  196  A    between atoms: _472  and  _474
REMARK  197  A    between atoms: _474  and  _475
REMARK  198  A    between atoms: _474  and  _477
REMARK  199  A    between atoms: _480  and  _482
REMARK  200  A    between atoms: _482  and  _483
REMARK  201  A    between atoms: _482  and  _485
REMARK  202  A    between atoms: _485  and  _486
REMARK  203  A    between atoms: _489  and  _491
REMARK  204  A    between atoms: _491  and  _492
REMARK  205  A    between atoms: _491  and  _494
REMARK  206  A    between atoms: _494  and  _495
REMARK  207  A    between atoms: _498  and  _500
REMARK  208  A    between atoms: _500  and  _501
REMARK  209  A    between atoms: _500  and  _503
REMARK  210  A    between atoms: _503  and  _504
REMARK  211  A    between atoms: _504  and  _505
REMARK  212  A    between atoms: _505  and  _506
REMARK                            x       y       z     vdW  Elec       q    Type
REMARK                         _______ _______ _______ _____ _____    ______ ____
ROOT
ATOM      1  O   HOH     1      90.645  10.623  15.207  0.00  0.00    +0.000 OA
ENDROOT
TORSDOF 0
